*SPEF "ieee 1481-1999"
*DESIGN "micro_irritating_maze"
*DATE "11:11:11 Fri 11 11, 1111"
*VENDOR "OpenRCX"
*PROGRAM "Parallel Extraction"
*VERSION "1.0"
*DESIGN_FLOW "NAME_SCOPE LOCAL" "PIN_CAP NONE"
*DIVIDER /
*DELIMITER :
*BUS_DELIMITER []
*T_UNIT 1 NS
*C_UNIT 1 PF
*R_UNIT 1 OHM
*L_UNIT 1 HENRY

*NAME_MAP
*1 io_in[0]
*2 io_in[10]
*3 io_in[11]
*4 io_in[12]
*5 io_in[13]
*6 io_in[14]
*7 io_in[15]
*8 io_in[16]
*9 io_in[17]
*10 io_in[18]
*11 io_in[19]
*12 io_in[1]
*13 io_in[20]
*14 io_in[21]
*15 io_in[22]
*16 io_in[23]
*17 io_in[24]
*18 io_in[25]
*19 io_in[26]
*20 io_in[27]
*21 io_in[28]
*22 io_in[29]
*23 io_in[2]
*24 io_in[30]
*25 io_in[31]
*26 io_in[3]
*27 io_in[4]
*28 io_in[5]
*29 io_in[6]
*30 io_in[7]
*31 io_in[8]
*32 io_in[9]
*33 net41
*34 net51
*35 net52
*36 net53
*37 net54
*38 net55
*39 net56
*40 net57
*41 net58
*42 net59
*43 net60
*44 net42
*45 net61
*46 net62
*47 net63
*48 net64
*49 net65
*50 net66
*51 net67
*52 net68
*53 net69
*54 net70
*55 net43
*56 net71
*57 net72
*58 net44
*59 net45
*60 net46
*61 net47
*62 net48
*63 net49
*64 net50
*65 net12
*66 net22
*67 net23
*68 net24
*69 net25
*70 net26
*71 net27
*72 net28
*73 net29
*74 net30
*75 net31
*76 net13
*77 net32
*78 net33
*79 net34
*80 net35
*81 net36
*82 net37
*83 net38
*84 io_out[27]
*85 io_out[28]
*86 io_out[29]
*87 net14
*88 net39
*89 net40
*90 net15
*91 net16
*92 net17
*93 net18
*94 net19
*95 net20
*96 net21
*97 la_data_in[0]
*98 la_data_in[10]
*99 la_data_in[11]
*100 la_data_in[12]
*101 la_data_in[13]
*102 la_data_in[14]
*103 la_data_in[15]
*104 la_data_in[16]
*105 la_data_in[17]
*106 la_data_in[18]
*107 la_data_in[19]
*108 la_data_in[1]
*109 la_data_in[20]
*110 la_data_in[21]
*111 la_data_in[22]
*112 la_data_in[23]
*113 la_data_in[24]
*114 la_data_in[25]
*115 la_data_in[26]
*116 la_data_in[27]
*117 la_data_in[28]
*118 la_data_in[29]
*119 la_data_in[2]
*120 la_data_in[30]
*121 la_data_in[31]
*122 la_data_in[32]
*123 la_data_in[33]
*124 la_data_in[34]
*125 la_data_in[35]
*126 la_data_in[36]
*127 la_data_in[37]
*128 la_data_in[38]
*129 la_data_in[39]
*130 la_data_in[3]
*131 la_data_in[40]
*132 la_data_in[41]
*133 la_data_in[42]
*134 la_data_in[43]
*135 la_data_in[44]
*136 la_data_in[45]
*137 la_data_in[46]
*138 la_data_in[47]
*139 la_data_in[48]
*140 la_data_in[49]
*141 la_data_in[4]
*142 la_data_in[50]
*143 la_data_in[51]
*144 la_data_in[52]
*145 la_data_in[53]
*146 la_data_in[54]
*147 la_data_in[55]
*148 la_data_in[56]
*149 la_data_in[57]
*150 la_data_in[58]
*151 la_data_in[59]
*152 la_data_in[5]
*153 la_data_in[60]
*154 la_data_in[61]
*155 la_data_in[62]
*156 la_data_in[63]
*157 la_data_in[6]
*158 la_data_in[7]
*159 la_data_in[8]
*160 la_data_in[9]
*161 net73
*162 net83
*163 net84
*164 net85
*165 net86
*166 net87
*167 net88
*168 net89
*169 net90
*170 net91
*171 net92
*172 net74
*173 net93
*174 net94
*175 net95
*176 net96
*177 net97
*178 net98
*179 net99
*180 net100
*181 net101
*182 net102
*183 net75
*184 net103
*185 net104
*186 net105
*187 net106
*188 net107
*189 net108
*190 net109
*191 net110
*192 net111
*193 net112
*194 net76
*195 net113
*196 net114
*197 net115
*198 net116
*199 net117
*200 net118
*201 net119
*202 net120
*203 net121
*204 net122
*205 net77
*206 net123
*207 net124
*208 net125
*209 net126
*210 net127
*211 net128
*212 net129
*213 net130
*214 net131
*215 net132
*216 net78
*217 net133
*218 net134
*219 net135
*220 net136
*221 net79
*222 net80
*223 net81
*224 net82
*225 la_oenb[0]
*226 la_oenb[10]
*227 la_oenb[11]
*228 la_oenb[12]
*229 la_oenb[13]
*230 la_oenb[14]
*231 la_oenb[15]
*232 la_oenb[16]
*233 la_oenb[17]
*234 la_oenb[18]
*235 la_oenb[19]
*236 la_oenb[1]
*237 la_oenb[20]
*238 la_oenb[21]
*239 la_oenb[22]
*240 la_oenb[23]
*241 la_oenb[24]
*242 la_oenb[25]
*243 la_oenb[26]
*244 la_oenb[27]
*245 la_oenb[28]
*246 la_oenb[29]
*247 la_oenb[2]
*248 la_oenb[30]
*249 la_oenb[31]
*250 la_oenb[32]
*251 la_oenb[33]
*252 la_oenb[34]
*253 la_oenb[35]
*254 la_oenb[36]
*255 la_oenb[37]
*256 la_oenb[38]
*257 la_oenb[39]
*258 la_oenb[3]
*259 la_oenb[40]
*260 la_oenb[41]
*261 la_oenb[42]
*262 la_oenb[43]
*263 la_oenb[44]
*264 la_oenb[45]
*265 la_oenb[46]
*266 la_oenb[47]
*267 la_oenb[48]
*268 la_oenb[49]
*269 la_oenb[4]
*270 la_oenb[50]
*271 la_oenb[51]
*272 la_oenb[52]
*273 la_oenb[53]
*274 la_oenb[54]
*275 la_oenb[55]
*276 la_oenb[56]
*277 la_oenb[57]
*278 la_oenb[58]
*279 la_oenb[59]
*280 la_oenb[5]
*281 la_oenb[60]
*282 la_oenb[61]
*283 la_oenb[62]
*284 la_oenb[63]
*285 la_oenb[6]
*286 la_oenb[7]
*287 la_oenb[8]
*288 la_oenb[9]
*291 wb_clk_i
*292 wb_rst_i
*293 wbs_ack_o
*294 wbs_adr_i[0]
*295 wbs_adr_i[10]
*296 wbs_adr_i[11]
*297 wbs_adr_i[12]
*298 wbs_adr_i[13]
*299 wbs_adr_i[14]
*300 wbs_adr_i[15]
*301 wbs_adr_i[16]
*302 wbs_adr_i[17]
*303 wbs_adr_i[18]
*304 wbs_adr_i[19]
*305 wbs_adr_i[1]
*306 wbs_adr_i[20]
*307 wbs_adr_i[21]
*308 wbs_adr_i[22]
*309 wbs_adr_i[23]
*310 wbs_adr_i[24]
*311 wbs_adr_i[25]
*312 wbs_adr_i[26]
*313 wbs_adr_i[27]
*314 wbs_adr_i[28]
*315 wbs_adr_i[29]
*316 wbs_adr_i[2]
*317 wbs_adr_i[30]
*318 wbs_adr_i[31]
*319 wbs_adr_i[3]
*320 wbs_adr_i[4]
*321 wbs_adr_i[5]
*322 wbs_adr_i[6]
*323 wbs_adr_i[7]
*324 wbs_adr_i[8]
*325 wbs_adr_i[9]
*326 wbs_cyc_i
*327 wbs_dat_i[0]
*328 wbs_dat_i[10]
*329 wbs_dat_i[11]
*330 wbs_dat_i[12]
*331 wbs_dat_i[13]
*332 wbs_dat_i[14]
*333 wbs_dat_i[15]
*334 wbs_dat_i[16]
*335 wbs_dat_i[17]
*336 wbs_dat_i[18]
*337 wbs_dat_i[19]
*338 wbs_dat_i[1]
*339 wbs_dat_i[20]
*340 wbs_dat_i[21]
*341 wbs_dat_i[22]
*342 wbs_dat_i[23]
*343 wbs_dat_i[24]
*344 wbs_dat_i[25]
*345 wbs_dat_i[26]
*346 wbs_dat_i[27]
*347 wbs_dat_i[28]
*348 wbs_dat_i[29]
*349 wbs_dat_i[2]
*350 wbs_dat_i[30]
*351 wbs_dat_i[31]
*352 wbs_dat_i[3]
*353 wbs_dat_i[4]
*354 wbs_dat_i[5]
*355 wbs_dat_i[6]
*356 wbs_dat_i[7]
*357 wbs_dat_i[8]
*358 wbs_dat_i[9]
*359 net137
*360 net147
*361 net148
*362 net149
*363 net150
*364 net151
*365 net152
*366 net153
*367 net154
*368 net155
*369 net156
*370 net138
*371 net157
*372 net158
*373 net159
*374 net160
*375 net161
*376 net162
*377 net163
*378 net164
*379 net165
*380 net166
*381 net139
*382 net167
*383 net168
*384 net140
*385 net141
*386 net142
*387 net143
*388 net144
*389 net145
*390 net146
*391 wbs_sel_i[0]
*392 wbs_sel_i[1]
*393 wbs_sel_i[2]
*394 wbs_sel_i[3]
*395 wbs_stb_i
*396 wbs_we_i
*397 _000_
*398 _001_
*399 _002_
*400 _003_
*401 _004_
*402 _005_
*403 clknet_0_net10
*404 clknet_1_0__leaf_net10
*405 clknet_1_1__leaf_net10
*406 net1
*407 net10
*408 net11
*409 net169
*410 net170
*411 net171
*412 net172
*413 net173
*414 net174
*415 net2
*416 net3
*417 net4
*418 net5
*419 net6
*420 net7
*421 net8
*422 net9
*423 ANTENNA__006__I0
*424 ANTENNA__006__I1
*425 ANTENNA__006__S
*426 ANTENNA__008__I0
*427 ANTENNA__008__S
*428 ANTENNA_hold1_I
*429 ANTENNA_hold2_I
*430 ANTENNA_hold4_I
*431 ANTENNA_hold5_I
*432 ANTENNA_input1_I
*433 ANTENNA_input2_I
*434 ANTENNA_input3_I
*435 ANTENNA_input5_I
*436 ANTENNA_input7_I
*437 ANTENNA_output8_I
*438 FILLER_0_0_104
*439 FILLER_0_0_138
*440 FILLER_0_0_172
*441 FILLER_0_0_179
*442 FILLER_0_0_187
*443 FILLER_0_0_2
*444 FILLER_0_0_235
*445 FILLER_0_0_237
*446 FILLER_0_0_255
*447 FILLER_0_0_261
*448 FILLER_0_0_267
*449 FILLER_0_0_274
*450 FILLER_0_0_308
*451 FILLER_0_0_310
*452 FILLER_0_0_315
*453 FILLER_0_0_321
*454 FILLER_0_0_327
*455 FILLER_0_0_333
*456 FILLER_0_0_339
*457 FILLER_0_0_346
*458 FILLER_0_0_351
*459 FILLER_0_0_357
*460 FILLER_0_0_36
*461 FILLER_0_0_363
*462 FILLER_0_0_369
*463 FILLER_0_0_376
*464 FILLER_0_0_381
*465 FILLER_0_0_387
*466 FILLER_0_0_393
*467 FILLER_0_0_399
*468 FILLER_0_0_410
*469 FILLER_0_0_415
*470 FILLER_0_0_421
*471 FILLER_0_0_427
*472 FILLER_0_0_433
*473 FILLER_0_0_444
*474 FILLER_0_0_446
*475 FILLER_0_0_451
*476 FILLER_0_0_457
*477 FILLER_0_0_463
*478 FILLER_0_0_469
*479 FILLER_0_0_475
*480 FILLER_0_0_482
*481 FILLER_0_0_487
*482 FILLER_0_0_493
*483 FILLER_0_0_499
*484 FILLER_0_0_505
*485 FILLER_0_0_509
*486 FILLER_0_0_516
*487 FILLER_0_0_532
*488 FILLER_0_0_536
*489 FILLER_0_0_566
*490 FILLER_0_0_571
*491 FILLER_0_0_577
*492 FILLER_0_0_584
*493 FILLER_0_0_589
*494 FILLER_0_0_595
*495 FILLER_0_0_601
*496 FILLER_0_0_607
*497 FILLER_0_0_611
*498 FILLER_0_0_626
*499 FILLER_0_0_631
*500 FILLER_0_0_637
*501 FILLER_0_0_643
*502 FILLER_0_0_645
*503 FILLER_0_0_656
*504 FILLER_0_0_661
*505 FILLER_0_0_667
*506 FILLER_0_0_673
*507 FILLER_0_0_679
*508 FILLER_0_0_686
*509 FILLER_0_0_691
*510 FILLER_0_0_697
*511 FILLER_0_0_70
*512 FILLER_0_0_703
*513 FILLER_0_0_709
*514 FILLER_0_0_713
*515 FILLER_0_0_728
*516 FILLER_0_0_733
*517 FILLER_0_0_739
*518 FILLER_0_0_745
*519 FILLER_0_0_747
*520 FILLER_0_0_758
*521 FILLER_0_0_763
*522 FILLER_0_0_769
*523 FILLER_0_0_781
*524 FILLER_0_0_784
*525 FILLER_0_0_788
*526 FILLER_0_0_805
*527 FILLER_0_0_809
*528 FILLER_0_0_813
*529 FILLER_0_0_815
*530 FILLER_0_0_818
*531 FILLER_0_0_852
*532 FILLER_0_0_886
*533 FILLER_0_0_920
*534 FILLER_0_0_954
*535 FILLER_0_0_970
*536 FILLER_0_10_101
*537 FILLER_0_10_107
*538 FILLER_0_10_171
*539 FILLER_0_10_177
*540 FILLER_0_10_2
*541 FILLER_0_10_241
*542 FILLER_0_10_247
*543 FILLER_0_10_311
*544 FILLER_0_10_317
*545 FILLER_0_10_34
*546 FILLER_0_10_37
*547 FILLER_0_10_381
*548 FILLER_0_10_387
*549 FILLER_0_10_451
*550 FILLER_0_10_457
*551 FILLER_0_10_521
*552 FILLER_0_10_527
*553 FILLER_0_10_591
*554 FILLER_0_10_597
*555 FILLER_0_10_661
*556 FILLER_0_10_667
*557 FILLER_0_10_731
*558 FILLER_0_10_737
*559 FILLER_0_10_801
*560 FILLER_0_10_807
*561 FILLER_0_10_871
*562 FILLER_0_10_877
*563 FILLER_0_10_941
*564 FILLER_0_10_947
*565 FILLER_0_10_963
*566 FILLER_0_10_971
*567 FILLER_0_10_973
*568 FILLER_0_11_136
*569 FILLER_0_11_142
*570 FILLER_0_11_2
*571 FILLER_0_11_206
*572 FILLER_0_11_212
*573 FILLER_0_11_276
*574 FILLER_0_11_282
*575 FILLER_0_11_346
*576 FILLER_0_11_352
*577 FILLER_0_11_416
*578 FILLER_0_11_422
*579 FILLER_0_11_486
*580 FILLER_0_11_492
*581 FILLER_0_11_556
*582 FILLER_0_11_562
*583 FILLER_0_11_626
*584 FILLER_0_11_632
*585 FILLER_0_11_66
*586 FILLER_0_11_696
*587 FILLER_0_11_702
*588 FILLER_0_11_72
*589 FILLER_0_11_766
*590 FILLER_0_11_772
*591 FILLER_0_11_836
*592 FILLER_0_11_842
*593 FILLER_0_11_906
*594 FILLER_0_11_912
*595 FILLER_0_11_944
*596 FILLER_0_11_960
*597 FILLER_0_11_968
*598 FILLER_0_11_972
*599 FILLER_0_12_101
*600 FILLER_0_12_107
*601 FILLER_0_12_171
*602 FILLER_0_12_177
*603 FILLER_0_12_22
*604 FILLER_0_12_241
*605 FILLER_0_12_247
*606 FILLER_0_12_30
*607 FILLER_0_12_311
*608 FILLER_0_12_317
*609 FILLER_0_12_34
*610 FILLER_0_12_37
*611 FILLER_0_12_381
*612 FILLER_0_12_387
*613 FILLER_0_12_451
*614 FILLER_0_12_457
*615 FILLER_0_12_521
*616 FILLER_0_12_527
*617 FILLER_0_12_591
*618 FILLER_0_12_597
*619 FILLER_0_12_6
*620 FILLER_0_12_661
*621 FILLER_0_12_667
*622 FILLER_0_12_731
*623 FILLER_0_12_737
*624 FILLER_0_12_801
*625 FILLER_0_12_807
*626 FILLER_0_12_871
*627 FILLER_0_12_877
*628 FILLER_0_12_941
*629 FILLER_0_12_947
*630 FILLER_0_12_963
*631 FILLER_0_12_971
*632 FILLER_0_12_973
*633 FILLER_0_13_136
*634 FILLER_0_13_142
*635 FILLER_0_13_206
*636 FILLER_0_13_212
*637 FILLER_0_13_276
*638 FILLER_0_13_28
*639 FILLER_0_13_282
*640 FILLER_0_13_346
*641 FILLER_0_13_352
*642 FILLER_0_13_416
*643 FILLER_0_13_422
*644 FILLER_0_13_486
*645 FILLER_0_13_492
*646 FILLER_0_13_556
*647 FILLER_0_13_562
*648 FILLER_0_13_60
*649 FILLER_0_13_626
*650 FILLER_0_13_632
*651 FILLER_0_13_68
*652 FILLER_0_13_696
*653 FILLER_0_13_702
*654 FILLER_0_13_72
*655 FILLER_0_13_766
*656 FILLER_0_13_772
*657 FILLER_0_13_836
*658 FILLER_0_13_842
*659 FILLER_0_13_906
*660 FILLER_0_13_912
*661 FILLER_0_13_944
*662 FILLER_0_13_960
*663 FILLER_0_13_968
*664 FILLER_0_13_972
*665 FILLER_0_14_101
*666 FILLER_0_14_107
*667 FILLER_0_14_171
*668 FILLER_0_14_177
*669 FILLER_0_14_2
*670 FILLER_0_14_241
*671 FILLER_0_14_247
*672 FILLER_0_14_311
*673 FILLER_0_14_317
*674 FILLER_0_14_34
*675 FILLER_0_14_37
*676 FILLER_0_14_381
*677 FILLER_0_14_387
*678 FILLER_0_14_451
*679 FILLER_0_14_457
*680 FILLER_0_14_521
*681 FILLER_0_14_527
*682 FILLER_0_14_591
*683 FILLER_0_14_597
*684 FILLER_0_14_661
*685 FILLER_0_14_667
*686 FILLER_0_14_731
*687 FILLER_0_14_737
*688 FILLER_0_14_801
*689 FILLER_0_14_807
*690 FILLER_0_14_871
*691 FILLER_0_14_877
*692 FILLER_0_14_941
*693 FILLER_0_14_947
*694 FILLER_0_14_963
*695 FILLER_0_14_967
*696 FILLER_0_14_969
*697 FILLER_0_15_136
*698 FILLER_0_15_142
*699 FILLER_0_15_206
*700 FILLER_0_15_212
*701 FILLER_0_15_276
*702 FILLER_0_15_282
*703 FILLER_0_15_346
*704 FILLER_0_15_352
*705 FILLER_0_15_416
*706 FILLER_0_15_422
*707 FILLER_0_15_486
*708 FILLER_0_15_492
*709 FILLER_0_15_556
*710 FILLER_0_15_562
*711 FILLER_0_15_6
*712 FILLER_0_15_626
*713 FILLER_0_15_632
*714 FILLER_0_15_696
*715 FILLER_0_15_702
*716 FILLER_0_15_72
*717 FILLER_0_15_766
*718 FILLER_0_15_772
*719 FILLER_0_15_836
*720 FILLER_0_15_842
*721 FILLER_0_15_906
*722 FILLER_0_15_912
*723 FILLER_0_15_944
*724 FILLER_0_15_960
*725 FILLER_0_15_968
*726 FILLER_0_15_972
*727 FILLER_0_16_101
*728 FILLER_0_16_107
*729 FILLER_0_16_171
*730 FILLER_0_16_177
*731 FILLER_0_16_241
*732 FILLER_0_16_247
*733 FILLER_0_16_28
*734 FILLER_0_16_311
*735 FILLER_0_16_317
*736 FILLER_0_16_32
*737 FILLER_0_16_34
*738 FILLER_0_16_37
*739 FILLER_0_16_381
*740 FILLER_0_16_387
*741 FILLER_0_16_451
*742 FILLER_0_16_457
*743 FILLER_0_16_521
*744 FILLER_0_16_527
*745 FILLER_0_16_591
*746 FILLER_0_16_597
*747 FILLER_0_16_661
*748 FILLER_0_16_667
*749 FILLER_0_16_731
*750 FILLER_0_16_737
*751 FILLER_0_16_801
*752 FILLER_0_16_807
*753 FILLER_0_16_871
*754 FILLER_0_16_877
*755 FILLER_0_16_941
*756 FILLER_0_16_947
*757 FILLER_0_16_963
*758 FILLER_0_16_971
*759 FILLER_0_16_973
*760 FILLER_0_17_136
*761 FILLER_0_17_142
*762 FILLER_0_17_2
*763 FILLER_0_17_206
*764 FILLER_0_17_212
*765 FILLER_0_17_276
*766 FILLER_0_17_282
*767 FILLER_0_17_346
*768 FILLER_0_17_352
*769 FILLER_0_17_416
*770 FILLER_0_17_422
*771 FILLER_0_17_486
*772 FILLER_0_17_492
*773 FILLER_0_17_556
*774 FILLER_0_17_562
*775 FILLER_0_17_626
*776 FILLER_0_17_632
*777 FILLER_0_17_66
*778 FILLER_0_17_696
*779 FILLER_0_17_702
*780 FILLER_0_17_72
*781 FILLER_0_17_766
*782 FILLER_0_17_772
*783 FILLER_0_17_836
*784 FILLER_0_17_842
*785 FILLER_0_17_906
*786 FILLER_0_17_912
*787 FILLER_0_17_944
*788 FILLER_0_17_960
*789 FILLER_0_17_968
*790 FILLER_0_17_972
*791 FILLER_0_18_101
*792 FILLER_0_18_107
*793 FILLER_0_18_171
*794 FILLER_0_18_177
*795 FILLER_0_18_22
*796 FILLER_0_18_241
*797 FILLER_0_18_247
*798 FILLER_0_18_30
*799 FILLER_0_18_311
*800 FILLER_0_18_317
*801 FILLER_0_18_34
*802 FILLER_0_18_37
*803 FILLER_0_18_381
*804 FILLER_0_18_387
*805 FILLER_0_18_451
*806 FILLER_0_18_457
*807 FILLER_0_18_521
*808 FILLER_0_18_527
*809 FILLER_0_18_591
*810 FILLER_0_18_597
*811 FILLER_0_18_6
*812 FILLER_0_18_661
*813 FILLER_0_18_667
*814 FILLER_0_18_731
*815 FILLER_0_18_737
*816 FILLER_0_18_801
*817 FILLER_0_18_807
*818 FILLER_0_18_871
*819 FILLER_0_18_877
*820 FILLER_0_18_941
*821 FILLER_0_18_947
*822 FILLER_0_18_963
*823 FILLER_0_18_967
*824 FILLER_0_18_969
*825 FILLER_0_19_136
*826 FILLER_0_19_142
*827 FILLER_0_19_2
*828 FILLER_0_19_206
*829 FILLER_0_19_212
*830 FILLER_0_19_276
*831 FILLER_0_19_282
*832 FILLER_0_19_346
*833 FILLER_0_19_352
*834 FILLER_0_19_416
*835 FILLER_0_19_422
*836 FILLER_0_19_486
*837 FILLER_0_19_492
*838 FILLER_0_19_556
*839 FILLER_0_19_562
*840 FILLER_0_19_626
*841 FILLER_0_19_632
*842 FILLER_0_19_66
*843 FILLER_0_19_696
*844 FILLER_0_19_702
*845 FILLER_0_19_72
*846 FILLER_0_19_766
*847 FILLER_0_19_772
*848 FILLER_0_19_836
*849 FILLER_0_19_842
*850 FILLER_0_19_906
*851 FILLER_0_19_912
*852 FILLER_0_19_944
*853 FILLER_0_19_960
*854 FILLER_0_19_968
*855 FILLER_0_19_972
*856 FILLER_0_1_136
*857 FILLER_0_1_142
*858 FILLER_0_1_174
*859 FILLER_0_1_177
*860 FILLER_0_1_185
*861 FILLER_0_1_189
*862 FILLER_0_1_191
*863 FILLER_0_1_223
*864 FILLER_0_1_227
*865 FILLER_0_1_231
*866 FILLER_0_1_249
*867 FILLER_0_1_255
*868 FILLER_0_1_259
*869 FILLER_0_1_263
*870 FILLER_0_1_279
*871 FILLER_0_1_288
*872 FILLER_0_1_292
*873 FILLER_0_1_296
*874 FILLER_0_1_298
*875 FILLER_0_1_303
*876 FILLER_0_1_309
*877 FILLER_0_1_313
*878 FILLER_0_1_317
*879 FILLER_0_1_349
*880 FILLER_0_1_352
*881 FILLER_0_1_416
*882 FILLER_0_1_422
*883 FILLER_0_1_486
*884 FILLER_0_1_492
*885 FILLER_0_1_508
*886 FILLER_0_1_524
*887 FILLER_0_1_529
*888 FILLER_0_1_535
*889 FILLER_0_1_543
*890 FILLER_0_1_546
*891 FILLER_0_1_554
*892 FILLER_0_1_558
*893 FILLER_0_1_562
*894 FILLER_0_1_6
*895 FILLER_0_1_626
*896 FILLER_0_1_632
*897 FILLER_0_1_696
*898 FILLER_0_1_702
*899 FILLER_0_1_72
*900 FILLER_0_1_766
*901 FILLER_0_1_772
*902 FILLER_0_1_792
*903 FILLER_0_1_800
*904 FILLER_0_1_832
*905 FILLER_0_1_842
*906 FILLER_0_1_906
*907 FILLER_0_1_912
*908 FILLER_0_1_944
*909 FILLER_0_1_960
*910 FILLER_0_1_968
*911 FILLER_0_1_972
*912 FILLER_0_20_101
*913 FILLER_0_20_107
*914 FILLER_0_20_171
*915 FILLER_0_20_177
*916 FILLER_0_20_22
*917 FILLER_0_20_241
*918 FILLER_0_20_247
*919 FILLER_0_20_30
*920 FILLER_0_20_311
*921 FILLER_0_20_317
*922 FILLER_0_20_34
*923 FILLER_0_20_37
*924 FILLER_0_20_381
*925 FILLER_0_20_387
*926 FILLER_0_20_451
*927 FILLER_0_20_457
*928 FILLER_0_20_521
*929 FILLER_0_20_527
*930 FILLER_0_20_591
*931 FILLER_0_20_597
*932 FILLER_0_20_6
*933 FILLER_0_20_661
*934 FILLER_0_20_667
*935 FILLER_0_20_731
*936 FILLER_0_20_737
*937 FILLER_0_20_801
*938 FILLER_0_20_807
*939 FILLER_0_20_871
*940 FILLER_0_20_877
*941 FILLER_0_20_941
*942 FILLER_0_20_947
*943 FILLER_0_20_963
*944 FILLER_0_20_971
*945 FILLER_0_20_973
*946 FILLER_0_21_136
*947 FILLER_0_21_142
*948 FILLER_0_21_2
*949 FILLER_0_21_206
*950 FILLER_0_21_212
*951 FILLER_0_21_276
*952 FILLER_0_21_282
*953 FILLER_0_21_346
*954 FILLER_0_21_352
*955 FILLER_0_21_416
*956 FILLER_0_21_422
*957 FILLER_0_21_486
*958 FILLER_0_21_492
*959 FILLER_0_21_556
*960 FILLER_0_21_562
*961 FILLER_0_21_626
*962 FILLER_0_21_632
*963 FILLER_0_21_66
*964 FILLER_0_21_696
*965 FILLER_0_21_702
*966 FILLER_0_21_72
*967 FILLER_0_21_766
*968 FILLER_0_21_772
*969 FILLER_0_21_836
*970 FILLER_0_21_842
*971 FILLER_0_21_906
*972 FILLER_0_21_912
*973 FILLER_0_21_944
*974 FILLER_0_21_960
*975 FILLER_0_21_968
*976 FILLER_0_21_972
*977 FILLER_0_22_101
*978 FILLER_0_22_107
*979 FILLER_0_22_171
*980 FILLER_0_22_177
*981 FILLER_0_22_22
*982 FILLER_0_22_241
*983 FILLER_0_22_247
*984 FILLER_0_22_30
*985 FILLER_0_22_311
*986 FILLER_0_22_317
*987 FILLER_0_22_34
*988 FILLER_0_22_37
*989 FILLER_0_22_381
*990 FILLER_0_22_387
*991 FILLER_0_22_451
*992 FILLER_0_22_457
*993 FILLER_0_22_521
*994 FILLER_0_22_527
*995 FILLER_0_22_591
*996 FILLER_0_22_597
*997 FILLER_0_22_6
*998 FILLER_0_22_661
*999 FILLER_0_22_667
*1000 FILLER_0_22_731
*1001 FILLER_0_22_737
*1002 FILLER_0_22_801
*1003 FILLER_0_22_807
*1004 FILLER_0_22_871
*1005 FILLER_0_22_877
*1006 FILLER_0_22_941
*1007 FILLER_0_22_947
*1008 FILLER_0_22_963
*1009 FILLER_0_22_971
*1010 FILLER_0_22_973
*1011 FILLER_0_23_136
*1012 FILLER_0_23_142
*1013 FILLER_0_23_206
*1014 FILLER_0_23_212
*1015 FILLER_0_23_276
*1016 FILLER_0_23_282
*1017 FILLER_0_23_346
*1018 FILLER_0_23_352
*1019 FILLER_0_23_416
*1020 FILLER_0_23_422
*1021 FILLER_0_23_486
*1022 FILLER_0_23_492
*1023 FILLER_0_23_556
*1024 FILLER_0_23_562
*1025 FILLER_0_23_6
*1026 FILLER_0_23_626
*1027 FILLER_0_23_632
*1028 FILLER_0_23_696
*1029 FILLER_0_23_702
*1030 FILLER_0_23_72
*1031 FILLER_0_23_766
*1032 FILLER_0_23_772
*1033 FILLER_0_23_836
*1034 FILLER_0_23_842
*1035 FILLER_0_23_906
*1036 FILLER_0_23_912
*1037 FILLER_0_23_944
*1038 FILLER_0_23_960
*1039 FILLER_0_23_968
*1040 FILLER_0_23_972
*1041 FILLER_0_24_101
*1042 FILLER_0_24_107
*1043 FILLER_0_24_171
*1044 FILLER_0_24_177
*1045 FILLER_0_24_2
*1046 FILLER_0_24_241
*1047 FILLER_0_24_247
*1048 FILLER_0_24_311
*1049 FILLER_0_24_317
*1050 FILLER_0_24_34
*1051 FILLER_0_24_37
*1052 FILLER_0_24_381
*1053 FILLER_0_24_387
*1054 FILLER_0_24_451
*1055 FILLER_0_24_457
*1056 FILLER_0_24_521
*1057 FILLER_0_24_527
*1058 FILLER_0_24_591
*1059 FILLER_0_24_597
*1060 FILLER_0_24_661
*1061 FILLER_0_24_667
*1062 FILLER_0_24_731
*1063 FILLER_0_24_737
*1064 FILLER_0_24_801
*1065 FILLER_0_24_807
*1066 FILLER_0_24_871
*1067 FILLER_0_24_877
*1068 FILLER_0_24_941
*1069 FILLER_0_24_947
*1070 FILLER_0_24_963
*1071 FILLER_0_24_971
*1072 FILLER_0_24_973
*1073 FILLER_0_25_136
*1074 FILLER_0_25_142
*1075 FILLER_0_25_206
*1076 FILLER_0_25_212
*1077 FILLER_0_25_276
*1078 FILLER_0_25_282
*1079 FILLER_0_25_346
*1080 FILLER_0_25_352
*1081 FILLER_0_25_416
*1082 FILLER_0_25_422
*1083 FILLER_0_25_486
*1084 FILLER_0_25_492
*1085 FILLER_0_25_556
*1086 FILLER_0_25_562
*1087 FILLER_0_25_6
*1088 FILLER_0_25_626
*1089 FILLER_0_25_632
*1090 FILLER_0_25_696
*1091 FILLER_0_25_702
*1092 FILLER_0_25_72
*1093 FILLER_0_25_766
*1094 FILLER_0_25_772
*1095 FILLER_0_25_836
*1096 FILLER_0_25_842
*1097 FILLER_0_25_906
*1098 FILLER_0_25_912
*1099 FILLER_0_25_944
*1100 FILLER_0_25_960
*1101 FILLER_0_25_968
*1102 FILLER_0_26_101
*1103 FILLER_0_26_107
*1104 FILLER_0_26_171
*1105 FILLER_0_26_177
*1106 FILLER_0_26_22
*1107 FILLER_0_26_241
*1108 FILLER_0_26_247
*1109 FILLER_0_26_30
*1110 FILLER_0_26_311
*1111 FILLER_0_26_317
*1112 FILLER_0_26_34
*1113 FILLER_0_26_37
*1114 FILLER_0_26_381
*1115 FILLER_0_26_387
*1116 FILLER_0_26_451
*1117 FILLER_0_26_457
*1118 FILLER_0_26_521
*1119 FILLER_0_26_527
*1120 FILLER_0_26_591
*1121 FILLER_0_26_597
*1122 FILLER_0_26_6
*1123 FILLER_0_26_661
*1124 FILLER_0_26_667
*1125 FILLER_0_26_731
*1126 FILLER_0_26_737
*1127 FILLER_0_26_801
*1128 FILLER_0_26_807
*1129 FILLER_0_26_871
*1130 FILLER_0_26_877
*1131 FILLER_0_26_941
*1132 FILLER_0_26_947
*1133 FILLER_0_26_963
*1134 FILLER_0_26_971
*1135 FILLER_0_26_973
*1136 FILLER_0_27_136
*1137 FILLER_0_27_142
*1138 FILLER_0_27_2
*1139 FILLER_0_27_206
*1140 FILLER_0_27_212
*1141 FILLER_0_27_276
*1142 FILLER_0_27_282
*1143 FILLER_0_27_346
*1144 FILLER_0_27_352
*1145 FILLER_0_27_416
*1146 FILLER_0_27_422
*1147 FILLER_0_27_486
*1148 FILLER_0_27_492
*1149 FILLER_0_27_556
*1150 FILLER_0_27_562
*1151 FILLER_0_27_626
*1152 FILLER_0_27_632
*1153 FILLER_0_27_66
*1154 FILLER_0_27_696
*1155 FILLER_0_27_702
*1156 FILLER_0_27_72
*1157 FILLER_0_27_766
*1158 FILLER_0_27_772
*1159 FILLER_0_27_836
*1160 FILLER_0_27_842
*1161 FILLER_0_27_906
*1162 FILLER_0_27_912
*1163 FILLER_0_27_944
*1164 FILLER_0_27_960
*1165 FILLER_0_27_968
*1166 FILLER_0_27_972
*1167 FILLER_0_28_101
*1168 FILLER_0_28_107
*1169 FILLER_0_28_171
*1170 FILLER_0_28_177
*1171 FILLER_0_28_2
*1172 FILLER_0_28_241
*1173 FILLER_0_28_247
*1174 FILLER_0_28_311
*1175 FILLER_0_28_317
*1176 FILLER_0_28_34
*1177 FILLER_0_28_37
*1178 FILLER_0_28_381
*1179 FILLER_0_28_387
*1180 FILLER_0_28_451
*1181 FILLER_0_28_457
*1182 FILLER_0_28_521
*1183 FILLER_0_28_527
*1184 FILLER_0_28_591
*1185 FILLER_0_28_597
*1186 FILLER_0_28_661
*1187 FILLER_0_28_667
*1188 FILLER_0_28_731
*1189 FILLER_0_28_737
*1190 FILLER_0_28_801
*1191 FILLER_0_28_807
*1192 FILLER_0_28_871
*1193 FILLER_0_28_877
*1194 FILLER_0_28_941
*1195 FILLER_0_28_947
*1196 FILLER_0_28_963
*1197 FILLER_0_28_971
*1198 FILLER_0_28_973
*1199 FILLER_0_29_136
*1200 FILLER_0_29_142
*1201 FILLER_0_29_206
*1202 FILLER_0_29_212
*1203 FILLER_0_29_276
*1204 FILLER_0_29_282
*1205 FILLER_0_29_346
*1206 FILLER_0_29_352
*1207 FILLER_0_29_416
*1208 FILLER_0_29_422
*1209 FILLER_0_29_486
*1210 FILLER_0_29_492
*1211 FILLER_0_29_556
*1212 FILLER_0_29_562
*1213 FILLER_0_29_6
*1214 FILLER_0_29_626
*1215 FILLER_0_29_632
*1216 FILLER_0_29_696
*1217 FILLER_0_29_702
*1218 FILLER_0_29_72
*1219 FILLER_0_29_766
*1220 FILLER_0_29_772
*1221 FILLER_0_29_836
*1222 FILLER_0_29_842
*1223 FILLER_0_29_906
*1224 FILLER_0_29_912
*1225 FILLER_0_29_944
*1226 FILLER_0_29_960
*1227 FILLER_0_29_968
*1228 FILLER_0_2_101
*1229 FILLER_0_2_107
*1230 FILLER_0_2_139
*1231 FILLER_0_2_147
*1232 FILLER_0_2_149
*1233 FILLER_0_2_187
*1234 FILLER_0_2_22
*1235 FILLER_0_2_221
*1236 FILLER_0_2_235
*1237 FILLER_0_2_243
*1238 FILLER_0_2_251
*1239 FILLER_0_2_30
*1240 FILLER_0_2_317
*1241 FILLER_0_2_34
*1242 FILLER_0_2_37
*1243 FILLER_0_2_381
*1244 FILLER_0_2_387
*1245 FILLER_0_2_451
*1246 FILLER_0_2_457
*1247 FILLER_0_2_521
*1248 FILLER_0_2_527
*1249 FILLER_0_2_591
*1250 FILLER_0_2_597
*1251 FILLER_0_2_6
*1252 FILLER_0_2_661
*1253 FILLER_0_2_667
*1254 FILLER_0_2_731
*1255 FILLER_0_2_737
*1256 FILLER_0_2_769
*1257 FILLER_0_2_777
*1258 FILLER_0_2_781
*1259 FILLER_0_2_784
*1260 FILLER_0_2_786
*1261 FILLER_0_2_791
*1262 FILLER_0_2_795
*1263 FILLER_0_2_803
*1264 FILLER_0_2_807
*1265 FILLER_0_2_871
*1266 FILLER_0_2_877
*1267 FILLER_0_2_941
*1268 FILLER_0_2_947
*1269 FILLER_0_2_963
*1270 FILLER_0_2_971
*1271 FILLER_0_2_973
*1272 FILLER_0_30_101
*1273 FILLER_0_30_107
*1274 FILLER_0_30_171
*1275 FILLER_0_30_177
*1276 FILLER_0_30_22
*1277 FILLER_0_30_241
*1278 FILLER_0_30_247
*1279 FILLER_0_30_30
*1280 FILLER_0_30_311
*1281 FILLER_0_30_317
*1282 FILLER_0_30_34
*1283 FILLER_0_30_37
*1284 FILLER_0_30_381
*1285 FILLER_0_30_387
*1286 FILLER_0_30_451
*1287 FILLER_0_30_457
*1288 FILLER_0_30_521
*1289 FILLER_0_30_527
*1290 FILLER_0_30_591
*1291 FILLER_0_30_597
*1292 FILLER_0_30_6
*1293 FILLER_0_30_661
*1294 FILLER_0_30_667
*1295 FILLER_0_30_731
*1296 FILLER_0_30_737
*1297 FILLER_0_30_801
*1298 FILLER_0_30_807
*1299 FILLER_0_30_871
*1300 FILLER_0_30_877
*1301 FILLER_0_30_941
*1302 FILLER_0_30_947
*1303 FILLER_0_30_963
*1304 FILLER_0_30_971
*1305 FILLER_0_30_973
*1306 FILLER_0_31_136
*1307 FILLER_0_31_142
*1308 FILLER_0_31_2
*1309 FILLER_0_31_206
*1310 FILLER_0_31_212
*1311 FILLER_0_31_276
*1312 FILLER_0_31_282
*1313 FILLER_0_31_346
*1314 FILLER_0_31_352
*1315 FILLER_0_31_416
*1316 FILLER_0_31_422
*1317 FILLER_0_31_486
*1318 FILLER_0_31_492
*1319 FILLER_0_31_556
*1320 FILLER_0_31_562
*1321 FILLER_0_31_626
*1322 FILLER_0_31_632
*1323 FILLER_0_31_66
*1324 FILLER_0_31_696
*1325 FILLER_0_31_702
*1326 FILLER_0_31_72
*1327 FILLER_0_31_766
*1328 FILLER_0_31_772
*1329 FILLER_0_31_836
*1330 FILLER_0_31_842
*1331 FILLER_0_31_906
*1332 FILLER_0_31_912
*1333 FILLER_0_31_944
*1334 FILLER_0_31_960
*1335 FILLER_0_31_968
*1336 FILLER_0_31_972
*1337 FILLER_0_32_101
*1338 FILLER_0_32_107
*1339 FILLER_0_32_171
*1340 FILLER_0_32_177
*1341 FILLER_0_32_22
*1342 FILLER_0_32_241
*1343 FILLER_0_32_247
*1344 FILLER_0_32_30
*1345 FILLER_0_32_311
*1346 FILLER_0_32_317
*1347 FILLER_0_32_34
*1348 FILLER_0_32_37
*1349 FILLER_0_32_381
*1350 FILLER_0_32_387
*1351 FILLER_0_32_451
*1352 FILLER_0_32_457
*1353 FILLER_0_32_521
*1354 FILLER_0_32_527
*1355 FILLER_0_32_591
*1356 FILLER_0_32_597
*1357 FILLER_0_32_6
*1358 FILLER_0_32_661
*1359 FILLER_0_32_667
*1360 FILLER_0_32_731
*1361 FILLER_0_32_737
*1362 FILLER_0_32_801
*1363 FILLER_0_32_807
*1364 FILLER_0_32_871
*1365 FILLER_0_32_877
*1366 FILLER_0_32_941
*1367 FILLER_0_32_947
*1368 FILLER_0_32_963
*1369 FILLER_0_32_971
*1370 FILLER_0_32_973
*1371 FILLER_0_33_136
*1372 FILLER_0_33_142
*1373 FILLER_0_33_206
*1374 FILLER_0_33_212
*1375 FILLER_0_33_276
*1376 FILLER_0_33_282
*1377 FILLER_0_33_346
*1378 FILLER_0_33_352
*1379 FILLER_0_33_416
*1380 FILLER_0_33_422
*1381 FILLER_0_33_486
*1382 FILLER_0_33_492
*1383 FILLER_0_33_556
*1384 FILLER_0_33_562
*1385 FILLER_0_33_6
*1386 FILLER_0_33_626
*1387 FILLER_0_33_632
*1388 FILLER_0_33_696
*1389 FILLER_0_33_702
*1390 FILLER_0_33_72
*1391 FILLER_0_33_766
*1392 FILLER_0_33_772
*1393 FILLER_0_33_836
*1394 FILLER_0_33_842
*1395 FILLER_0_33_906
*1396 FILLER_0_33_912
*1397 FILLER_0_33_944
*1398 FILLER_0_33_960
*1399 FILLER_0_33_968
*1400 FILLER_0_33_972
*1401 FILLER_0_34_101
*1402 FILLER_0_34_107
*1403 FILLER_0_34_171
*1404 FILLER_0_34_177
*1405 FILLER_0_34_2
*1406 FILLER_0_34_241
*1407 FILLER_0_34_247
*1408 FILLER_0_34_311
*1409 FILLER_0_34_317
*1410 FILLER_0_34_34
*1411 FILLER_0_34_37
*1412 FILLER_0_34_381
*1413 FILLER_0_34_387
*1414 FILLER_0_34_451
*1415 FILLER_0_34_457
*1416 FILLER_0_34_521
*1417 FILLER_0_34_527
*1418 FILLER_0_34_591
*1419 FILLER_0_34_597
*1420 FILLER_0_34_661
*1421 FILLER_0_34_667
*1422 FILLER_0_34_731
*1423 FILLER_0_34_737
*1424 FILLER_0_34_801
*1425 FILLER_0_34_807
*1426 FILLER_0_34_871
*1427 FILLER_0_34_877
*1428 FILLER_0_34_941
*1429 FILLER_0_34_947
*1430 FILLER_0_34_963
*1431 FILLER_0_34_971
*1432 FILLER_0_34_973
*1433 FILLER_0_35_136
*1434 FILLER_0_35_142
*1435 FILLER_0_35_2
*1436 FILLER_0_35_206
*1437 FILLER_0_35_212
*1438 FILLER_0_35_276
*1439 FILLER_0_35_282
*1440 FILLER_0_35_346
*1441 FILLER_0_35_352
*1442 FILLER_0_35_416
*1443 FILLER_0_35_422
*1444 FILLER_0_35_486
*1445 FILLER_0_35_492
*1446 FILLER_0_35_556
*1447 FILLER_0_35_562
*1448 FILLER_0_35_626
*1449 FILLER_0_35_632
*1450 FILLER_0_35_66
*1451 FILLER_0_35_696
*1452 FILLER_0_35_702
*1453 FILLER_0_35_72
*1454 FILLER_0_35_766
*1455 FILLER_0_35_772
*1456 FILLER_0_35_836
*1457 FILLER_0_35_842
*1458 FILLER_0_35_906
*1459 FILLER_0_35_912
*1460 FILLER_0_35_944
*1461 FILLER_0_35_960
*1462 FILLER_0_35_968
*1463 FILLER_0_35_972
*1464 FILLER_0_36_101
*1465 FILLER_0_36_107
*1466 FILLER_0_36_171
*1467 FILLER_0_36_177
*1468 FILLER_0_36_22
*1469 FILLER_0_36_241
*1470 FILLER_0_36_247
*1471 FILLER_0_36_30
*1472 FILLER_0_36_311
*1473 FILLER_0_36_317
*1474 FILLER_0_36_34
*1475 FILLER_0_36_37
*1476 FILLER_0_36_381
*1477 FILLER_0_36_387
*1478 FILLER_0_36_451
*1479 FILLER_0_36_457
*1480 FILLER_0_36_521
*1481 FILLER_0_36_527
*1482 FILLER_0_36_591
*1483 FILLER_0_36_597
*1484 FILLER_0_36_6
*1485 FILLER_0_36_661
*1486 FILLER_0_36_667
*1487 FILLER_0_36_731
*1488 FILLER_0_36_737
*1489 FILLER_0_36_801
*1490 FILLER_0_36_807
*1491 FILLER_0_36_871
*1492 FILLER_0_36_877
*1493 FILLER_0_36_941
*1494 FILLER_0_36_947
*1495 FILLER_0_36_963
*1496 FILLER_0_36_967
*1497 FILLER_0_36_969
*1498 FILLER_0_37_136
*1499 FILLER_0_37_142
*1500 FILLER_0_37_206
*1501 FILLER_0_37_212
*1502 FILLER_0_37_276
*1503 FILLER_0_37_282
*1504 FILLER_0_37_346
*1505 FILLER_0_37_352
*1506 FILLER_0_37_416
*1507 FILLER_0_37_422
*1508 FILLER_0_37_486
*1509 FILLER_0_37_492
*1510 FILLER_0_37_556
*1511 FILLER_0_37_562
*1512 FILLER_0_37_6
*1513 FILLER_0_37_626
*1514 FILLER_0_37_632
*1515 FILLER_0_37_696
*1516 FILLER_0_37_702
*1517 FILLER_0_37_72
*1518 FILLER_0_37_766
*1519 FILLER_0_37_772
*1520 FILLER_0_37_836
*1521 FILLER_0_37_842
*1522 FILLER_0_37_906
*1523 FILLER_0_37_912
*1524 FILLER_0_37_944
*1525 FILLER_0_37_960
*1526 FILLER_0_37_968
*1527 FILLER_0_37_972
*1528 FILLER_0_38_101
*1529 FILLER_0_38_107