*SPEF "ieee 1481-1999"
*DESIGN "user_project_wrapper"
*DATE "11:11:11 Fri 11 11, 1111"
*VENDOR "OpenRCX"
*PROGRAM "Parallel Extraction"
*VERSION "1.0"
*DESIGN_FLOW "NAME_SCOPE LOCAL" "PIN_CAP NONE"
*DIVIDER /
*DELIMITER :
*BUS_DELIMITER []
*T_UNIT 1 NS
*C_UNIT 1 PF
*R_UNIT 1 OHM
*L_UNIT 1 HENRY

*NAME_MAP
*1 io_in[0]
*2 io_in[10]
*3 io_in[11]
*4 io_in[12]
*5 io_in[13]
*6 io_in[14]
*7 io_in[15]
*8 io_in[16]
*9 io_in[17]
*10 io_in[18]
*11 io_in[19]
*12 io_in[1]
*13 io_in[20]
*14 io_in[21]
*15 io_in[22]
*16 io_in[23]
*17 io_in[24]
*18 io_in[25]
*19 io_in[26]
*20 io_in[27]
*21 io_in[28]
*22 io_in[29]
*23 io_in[2]
*24 io_in[30]
*25 io_in[31]
*26 io_in[32]
*27 io_in[33]
*28 io_in[34]
*29 io_in[35]
*30 io_in[36]
*31 io_in[37]
*32 io_in[3]
*33 io_in[4]
*34 io_in[5]
*35 io_in[6]
*36 io_in[7]
*37 io_in[8]
*38 io_in[9]
*39 io_oeb[0]
*40 io_oeb[10]
*41 io_oeb[11]
*42 io_oeb[12]
*43 io_oeb[13]
*44 io_oeb[14]
*45 io_oeb[15]
*46 io_oeb[16]
*47 io_oeb[17]
*48 io_oeb[18]
*49 io_oeb[19]
*50 io_oeb[1]
*51 io_oeb[20]
*52 io_oeb[21]
*53 io_oeb[22]
*54 io_oeb[23]
*55 io_oeb[24]
*56 io_oeb[25]
*57 io_oeb[26]
*58 io_oeb[27]
*59 io_oeb[28]
*60 io_oeb[29]
*61 io_oeb[2]
*62 io_oeb[30]
*63 io_oeb[31]
*64 io_oeb[32]
*65 io_oeb[33]
*66 io_oeb[34]
*67 io_oeb[35]
*68 io_oeb[36]
*69 io_oeb[37]
*70 io_oeb[3]
*71 io_oeb[4]
*72 io_oeb[5]
*73 io_oeb[6]
*74 io_oeb[7]
*75 io_oeb[8]
*76 io_oeb[9]
*77 io_out[0]
*78 io_out[10]
*79 io_out[11]
*80 io_out[12]
*81 io_out[13]
*82 io_out[14]
*83 io_out[15]
*84 io_out[16]
*85 io_out[17]
*86 io_out[18]
*87 io_out[19]
*88 io_out[1]
*89 io_out[20]
*90 io_out[21]
*91 io_out[22]
*92 io_out[23]
*93 io_out[24]
*94 io_out[25]
*95 io_out[26]
*96 io_out[27]
*97 io_out[28]
*98 io_out[29]
*99 io_out[2]
*100 io_out[30]
*101 io_out[31]
*102 io_out[32]
*103 io_out[33]
*104 io_out[34]
*105 io_out[35]
*106 io_out[36]
*107 io_out[37]
*108 io_out[3]
*109 io_out[4]
*110 io_out[5]
*111 io_out[6]
*112 io_out[7]
*113 io_out[8]
*114 io_out[9]
*115 la_data_in[0]
*116 la_data_in[10]
*117 la_data_in[11]
*118 la_data_in[12]
*119 la_data_in[13]
*120 la_data_in[14]
*121 la_data_in[15]
*122 la_data_in[16]
*123 la_data_in[17]
*124 la_data_in[18]
*125 la_data_in[19]
*126 la_data_in[1]
*127 la_data_in[20]
*128 la_data_in[21]
*129 la_data_in[22]
*130 la_data_in[23]
*131 la_data_in[24]
*132 la_data_in[25]
*133 la_data_in[26]
*134 la_data_in[27]
*135 la_data_in[28]
*136 la_data_in[29]
*137 la_data_in[2]
*138 la_data_in[30]
*139 la_data_in[31]
*140 la_data_in[32]
*141 la_data_in[33]
*142 la_data_in[34]
*143 la_data_in[35]
*144 la_data_in[36]
*145 la_data_in[37]
*146 la_data_in[38]
*147 la_data_in[39]
*148 la_data_in[3]
*149 la_data_in[40]
*150 la_data_in[41]
*151 la_data_in[42]
*152 la_data_in[43]
*153 la_data_in[44]
*154 la_data_in[45]
*155 la_data_in[46]
*156 la_data_in[47]
*157 la_data_in[48]
*158 la_data_in[49]
*159 la_data_in[4]
*160 la_data_in[50]
*161 la_data_in[51]
*162 la_data_in[52]
*163 la_data_in[53]
*164 la_data_in[54]
*165 la_data_in[55]
*166 la_data_in[56]
*167 la_data_in[57]
*168 la_data_in[58]
*169 la_data_in[59]
*170 la_data_in[5]
*171 la_data_in[60]
*172 la_data_in[61]
*173 la_data_in[62]
*174 la_data_in[63]
*175 la_data_in[6]
*176 la_data_in[7]
*177 la_data_in[8]
*178 la_data_in[9]
*179 la_data_out[0]
*180 la_data_out[10]
*181 la_data_out[11]
*182 la_data_out[12]
*183 la_data_out[13]
*184 la_data_out[14]
*185 la_data_out[15]
*186 la_data_out[16]
*187 la_data_out[17]
*188 la_data_out[18]
*189 la_data_out[19]
*190 la_data_out[1]
*191 la_data_out[20]
*192 la_data_out[21]
*193 la_data_out[22]
*194 la_data_out[23]
*195 la_data_out[24]
*196 la_data_out[25]
*197 la_data_out[26]
*198 la_data_out[27]
*199 la_data_out[28]
*200 la_data_out[29]
*201 la_data_out[2]
*202 la_data_out[30]
*203 la_data_out[31]
*204 la_data_out[32]
*205 la_data_out[33]
*206 la_data_out[34]
*207 la_data_out[35]
*208 la_data_out[36]
*209 la_data_out[37]
*210 la_data_out[38]
*211 la_data_out[39]
*212 la_data_out[3]
*213 la_data_out[40]
*214 la_data_out[41]
*215 la_data_out[42]
*216 la_data_out[43]
*217 la_data_out[44]
*218 la_data_out[45]
*219 la_data_out[46]
*220 la_data_out[47]
*221 la_data_out[48]
*222 la_data_out[49]
*223 la_data_out[4]
*224 la_data_out[50]
*225 la_data_out[51]
*226 la_data_out[52]
*227 la_data_out[53]
*228 la_data_out[54]
*229 la_data_out[55]
*230 la_data_out[56]
*231 la_data_out[57]
*232 la_data_out[58]
*233 la_data_out[59]
*234 la_data_out[5]
*235 la_data_out[60]
*236 la_data_out[61]
*237 la_data_out[62]
*238 la_data_out[63]
*239 la_data_out[6]
*240 la_data_out[7]
*241 la_data_out[8]
*242 la_data_out[9]
*243 la_oenb[0]
*244 la_oenb[10]
*245 la_oenb[11]
*246 la_oenb[12]
*247 la_oenb[13]
*248 la_oenb[14]
*249 la_oenb[15]
*250 la_oenb[16]
*251 la_oenb[17]
*252 la_oenb[18]
*253 la_oenb[19]
*254 la_oenb[1]
*255 la_oenb[20]
*256 la_oenb[21]
*257 la_oenb[22]
*258 la_oenb[23]
*259 la_oenb[24]
*260 la_oenb[25]
*261 la_oenb[26]
*262 la_oenb[27]
*263 la_oenb[28]
*264 la_oenb[29]
*265 la_oenb[2]
*266 la_oenb[30]
*267 la_oenb[31]
*268 la_oenb[32]
*269 la_oenb[33]
*270 la_oenb[34]
*271 la_oenb[35]
*272 la_oenb[36]
*273 la_oenb[37]
*274 la_oenb[38]
*275 la_oenb[39]
*276 la_oenb[3]
*277 la_oenb[40]
*278 la_oenb[41]
*279 la_oenb[42]
*280 la_oenb[43]
*281 la_oenb[44]
*282 la_oenb[45]
*283 la_oenb[46]
*284 la_oenb[47]
*285 la_oenb[48]
*286 la_oenb[49]
*287 la_oenb[4]
*288 la_oenb[50]
*289 la_oenb[51]
*290 la_oenb[52]
*291 la_oenb[53]
*292 la_oenb[54]
*293 la_oenb[55]
*294 la_oenb[56]
*295 la_oenb[57]
*296 la_oenb[58]
*297 la_oenb[59]
*298 la_oenb[5]
*299 la_oenb[60]
*300 la_oenb[61]
*301 la_oenb[62]
*302 la_oenb[63]
*303 la_oenb[6]
*304 la_oenb[7]
*305 la_oenb[8]
*306 la_oenb[9]
*307 user_clock2
*308 user_irq[0]
*309 user_irq[1]
*310 user_irq[2]
*313 wb_clk_i
*314 wb_rst_i
*315 wbs_ack_o
*316 wbs_adr_i[0]
*317 wbs_adr_i[10]
*318 wbs_adr_i[11]
*319 wbs_adr_i[12]
*320 wbs_adr_i[13]
*321 wbs_adr_i[14]
*322 wbs_adr_i[15]
*323 wbs_adr_i[16]
*324 wbs_adr_i[17]
*325 wbs_adr_i[18]
*326 wbs_adr_i[19]
*327 wbs_adr_i[1]
*328 wbs_adr_i[20]
*329 wbs_adr_i[21]
*330 wbs_adr_i[22]
*331 wbs_adr_i[23]
*332 wbs_adr_i[24]
*333 wbs_adr_i[25]
*334 wbs_adr_i[26]
*335 wbs_adr_i[27]
*336 wbs_adr_i[28]
*337 wbs_adr_i[29]
*338 wbs_adr_i[2]
*339 wbs_adr_i[30]
*340 wbs_adr_i[31]
*341 wbs_adr_i[3]
*342 wbs_adr_i[4]
*343 wbs_adr_i[5]
*344 wbs_adr_i[6]
*345 wbs_adr_i[7]
*346 wbs_adr_i[8]
*347 wbs_adr_i[9]
*348 wbs_cyc_i
*349 wbs_dat_i[0]
*350 wbs_dat_i[10]
*351 wbs_dat_i[11]
*352 wbs_dat_i[12]
*353 wbs_dat_i[13]
*354 wbs_dat_i[14]
*355 wbs_dat_i[15]
*356 wbs_dat_i[16]
*357 wbs_dat_i[17]
*358 wbs_dat_i[18]
*359 wbs_dat_i[19]
*360 wbs_dat_i[1]
*361 wbs_dat_i[20]
*362 wbs_dat_i[21]
*363 wbs_dat_i[22]
*364 wbs_dat_i[23]
*365 wbs_dat_i[24]
*366 wbs_dat_i[25]
*367 wbs_dat_i[26]
*368 wbs_dat_i[27]
*369 wbs_dat_i[28]
*370 wbs_dat_i[29]
*371 wbs_dat_i[2]
*372 wbs_dat_i[30]
*373 wbs_dat_i[31]
*374 wbs_dat_i[3]
*375 wbs_dat_i[4]
*376 wbs_dat_i[5]
*377 wbs_dat_i[6]
*378 wbs_dat_i[7]
*379 wbs_dat_i[8]
*380 wbs_dat_i[9]
*381 wbs_dat_o[0]
*382 wbs_dat_o[10]
*383 wbs_dat_o[11]
*384 wbs_dat_o[12]
*385 wbs_dat_o[13]
*386 wbs_dat_o[14]
*387 wbs_dat_o[15]
*388 wbs_dat_o[16]
*389 wbs_dat_o[17]
*390 wbs_dat_o[18]
*391 wbs_dat_o[19]
*392 wbs_dat_o[1]
*393 wbs_dat_o[20]
*394 wbs_dat_o[21]
*395 wbs_dat_o[22]
*396 wbs_dat_o[23]
*397 wbs_dat_o[24]
*398 wbs_dat_o[25]
*399 wbs_dat_o[26]
*400 wbs_dat_o[27]
*401 wbs_dat_o[28]
*402 wbs_dat_o[29]
*403 wbs_dat_o[2]
*404 wbs_dat_o[30]
*405 wbs_dat_o[31]
*406 wbs_dat_o[3]
*407 wbs_dat_o[4]
*408 wbs_dat_o[5]
*409 wbs_dat_o[6]
*410 wbs_dat_o[7]
*411 wbs_dat_o[8]
*412 wbs_dat_o[9]
*413 wbs_sel_i[0]
*414 wbs_sel_i[1]
*415 wbs_sel_i[2]
*416 wbs_sel_i[3]
*417 wbs_stb_i
*418 wbs_we_i
*419 micro_irritating_maze

*PORTS
io_in[0] I
io_in[10] I
io_in[11] I
io_in[12] I
io_in[13] I
io_in[14] I
io_in[15] I
io_in[16] I
io_in[17] I
io_in[18] I
io_in[19] I
io_in[1] I
io_in[20] I
io_in[21] I
io_in[22] I
io_in[23] I
io_in[24] I
io_in[25] I
io_in[26] I
io_in[27] I
io_in[28] I
io_in[29] I
io_in[2] I
io_in[30] I
io_in[31] I
io_in[32] I
io_in[33] I
io_in[34] I
io_in[35] I
io_in[36] I
io_in[37] I
io_in[3] I
io_in[4] I
io_in[5] I
io_in[6] I
io_in[7] I
io_in[8] I
io_in[9] I
io_oeb[0] O
io_oeb[10] O
io_oeb[11] O
io_oeb[12] O
io_oeb[13] O
io_oeb[14] O
io_oeb[15] O
io_oeb[16] O
io_oeb[17] O
io_oeb[18] O
io_oeb[19] O
io_oeb[1] O
io_oeb[20] O
io_oeb[21] O
io_oeb[22] O
io_oeb[23] O
io_oeb[24] O
io_oeb[25] O
io_oeb[26] O
io_oeb[27] O
io_oeb[28] O
io_oeb[29] O
io_oeb[2] O
io_oeb[30] O
io_oeb[31] O
io_oeb[32] O
io_oeb[33] O
io_oeb[34] O
io_oeb[35] O
io_oeb[36] O
io_oeb[37] O
io_oeb[3] O
io_oeb[4] O
io_oeb[5] O
io_oeb[6] O
io_oeb[7] O
io_oeb[8] O
io_oeb[9] O
io_out[0] O
io_out[10] O
io_out[11] O
io_out[12] O
io_out[13] O
io_out[14] O
io_out[15] O
io_out[16] O
io_out[17] O
io_out[18] O
io_out[19] O
io_out[1] O
io_out[20] O
io_out[21] O
io_out[22] O
io_out[23] O
io_out[24] O
io_out[25] O
io_out[26] O
io_out[27] O
io_out[28] O
io_out[29] O
io_out[2] O
io_out[30] O
io_out[31] O
io_out[32] O
io_out[33] O
io_out[34] O
io_out[35] O
io_out[36] O
io_out[37] O
io_out[3] O
io_out[4] O
io_out[5] O
io_out[6] O
io_out[7] O
io_out[8] O
io_out[9] O
la_data_in[0] I
la_data_in[10] I
la_data_in[11] I
la_data_in[12] I
la_data_in[13] I
la_data_in[14] I
la_data_in[15] I
la_data_in[16] I
la_data_in[17] I
la_data_in[18] I
la_data_in[19] I
la_data_in[1] I
la_data_in[20] I
la_data_in[21] I
la_data_in[22] I
la_data_in[23] I
la_data_in[24] I
la_data_in[25] I
la_data_in[26] I
la_data_in[27] I
la_data_in[28] I
la_data_in[29] I
la_data_in[2] I
la_data_in[30] I
la_data_in[31] I
la_data_in[32] I
la_data_in[33] I
la_data_in[34] I
la_data_in[35] I
la_data_in[36] I
la_data_in[37] I
la_data_in[38] I
la_data_in[39] I
la_data_in[3] I
la_data_in[40] I
la_data_in[41] I
la_data_in[42] I
la_data_in[43] I
la_data_in[44] I
la_data_in[45] I
la_data_in[46] I
la_data_in[47] I
la_data_in[48] I
la_data_in[49] I
la_data_in[4] I
la_data_in[50] I
la_data_in[51] I
la_data_in[52] I
la_data_in[53] I
la_data_in[54] I
la_data_in[55] I
la_data_in[56] I
la_data_in[57] I
la_data_in[58] I
la_data_in[59] I
la_data_in[5] I
la_data_in[60] I
la_data_in[61] I
la_data_in[62] I
la_data_in[63] I
la_data_in[6] I
la_data_in[7] I
la_data_in[8] I
la_data_in[9] I
la_data_out[0] O
la_data_out[10] O
la_data_out[11] O
la_data_out[12] O
la_data_out[13] O
la_data_out[14] O
la_data_out[15] O
la_data_out[16] O
la_data_out[17] O
la_data_out[18] O
la_data_out[19] O
la_data_out[1] O
la_data_out[20] O
la_data_out[21] O
la_data_out[22] O
la_data_out[23] O
la_data_out[24] O
la_data_out[25] O
la_data_out[26] O
la_data_out[27] O
la_data_out[28] O
la_data_out[29] O
la_data_out[2] O
la_data_out[30] O
la_data_out[31] O
la_data_out[32] O
la_data_out[33] O
la_data_out[34] O
la_data_out[35] O
la_data_out[36] O
la_data_out[37] O
la_data_out[38] O
la_data_out[39] O
la_data_out[3] O
la_data_out[40] O
la_data_out[41] O
la_data_out[42] O
la_data_out[43] O
la_data_out[44] O
la_data_out[45] O
la_data_out[46] O
la_data_out[47] O
la_data_out[48] O
la_data_out[49] O
la_data_out[4] O
la_data_out[50] O
la_data_out[51] O
la_data_out[52] O
la_data_out[53] O
la_data_out[54] O
la_data_out[55] O
la_data_out[56] O
la_data_out[57] O
la_data_out[58] O
la_data_out[59] O
la_data_out[5] O
la_data_out[60] O
la_data_out[61] O
la_data_out[62] O
la_data_out[63] O
la_data_out[6] O
la_data_out[7] O
la_data_out[8] O
la_data_out[9] O
la_oenb[0] I
la_oenb[10] I
la_oenb[11] I
la_oenb[12] I
la_oenb[13] I
la_oenb[14] I
la_oenb[15] I
la_oenb[16] I
la_oenb[17] I
la_oenb[18] I
la_oenb[19] I
la_oenb[1] I
la_oenb[20] I
la_oenb[21] I
la_oenb[22] I
la_oenb[23] I
la_oenb[24] I
la_oenb[25] I
la_oenb[26] I
la_oenb[27] I
la_oenb[28] I
la_oenb[29] I
la_oenb[2] I
la_oenb[30] I
la_oenb[31] I
la_oenb[32] I
la_oenb[33] I
la_oenb[34] I
la_oenb[35] I
la_oenb[36] I
la_oenb[37] I
la_oenb[38] I
la_oenb[39] I
la_oenb[3] I
la_oenb[40] I
la_oenb[41] I
la_oenb[42] I
la_oenb[43] I
la_oenb[44] I
la_oenb[45] I
la_oenb[46] I
la_oenb[47] I
la_oenb[48] I
la_oenb[49] I
la_oenb[4] I
la_oenb[50] I
la_oenb[51] I
la_oenb[52] I
la_oenb[53] I
la_oenb[54] I
la_oenb[55] I
la_oenb[56] I
la_oenb[57] I
la_oenb[58] I
la_oenb[59] I
la_oenb[5] I
la_oenb[60] I
la_oenb[61] I
la_oenb[62] I
la_oenb[63] I
la_oenb[6] I
la_oenb[7] I
la_oenb[8] I
la_oenb[9] I
user_clock2 I
user_irq[0] O
user_irq[1] O
user_irq[2] O
wb_clk_i I
wb_rst_i I
wbs_ack_o O
wbs_adr_i[0] I
wbs_adr_i[10] I
wbs_adr_i[11] I
wbs_adr_i[12] I
wbs_adr_i[13] I
wbs_adr_i[14] I
wbs_adr_i[15] I
wbs_adr_i[16] I
wbs_adr_i[17] I
wbs_adr_i[18] I
wbs_adr_i[19] I
wbs_adr_i[1] I
wbs_adr_i[20] I
wbs_adr_i[21] I
wbs_adr_i[22] I
wbs_adr_i[23] I
wbs_adr_i[24] I
wbs_adr_i[25] I
wbs_adr_i[26] I
wbs_adr_i[27] I
wbs_adr_i[28] I
wbs_adr_i[29] I
wbs_adr_i[2] I
wbs_adr_i[30] I
wbs_adr_i[31] I
wbs_adr_i[3] I
wbs_adr_i[4] I
wbs_adr_i[5] I
wbs_adr_i[6] I
wbs_adr_i[7] I
wbs_adr_i[8] I
wbs_adr_i[9] I
wbs_cyc_i I
wbs_dat_i[0] I
wbs_dat_i[10] I
wbs_dat_i[11] I
wbs_dat_i[12] I
wbs_dat_i[13] I
wbs_dat_i[14] I
wbs_dat_i[15] I
wbs_dat_i[16] I
wbs_dat_i[17] I
wbs_dat_i[18] I
wbs_dat_i[19] I
wbs_dat_i[1] I
wbs_dat_i[20] I
wbs_dat_i[21] I
wbs_dat_i[22] I
wbs_dat_i[23] I
wbs_dat_i[24] I
wbs_dat_i[25] I
wbs_dat_i[26] I
wbs_dat_i[27] I
wbs_dat_i[28] I
wbs_dat_i[29] I
wbs_dat_i[2] I
wbs_dat_i[30] I
wbs_dat_i[31] I
wbs_dat_i[3] I
wbs_dat_i[4] I
wbs_dat_i[5] I
wbs_dat_i[6] I
wbs_dat_i[7] I
wbs_dat_i[8] I
wbs_dat_i[9] I
wbs_dat_o[0] O
wbs_dat_o[10] O
wbs_dat_o[11] O
wbs_dat_o[12] O
wbs_dat_o[13] O
wbs_dat_o[14] O
wbs_dat_o[15] O
wbs_dat_o[16] O
wbs_dat_o[17] O
wbs_dat_o[18] O
wbs_dat_o[19] O
wbs_dat_o[1] O
wbs_dat_o[20] O
wbs_dat_o[21] O
wbs_dat_o[22] O
wbs_dat_o[23] O
wbs_dat_o[24] O
wbs_dat_o[25] O
wbs_dat_o[26] O
wbs_dat_o[27] O
wbs_dat_o[28] O
wbs_dat_o[29] O
wbs_dat_o[2] O
wbs_dat_o[30] O
wbs_dat_o[31] O
wbs_dat_o[3] O
wbs_dat_o[4] O
wbs_dat_o[5] O
wbs_dat_o[6] O
wbs_dat_o[7] O
wbs_dat_o[8] O
wbs_dat_o[9] O
wbs_sel_i[0] I
wbs_sel_i[1] I
wbs_sel_i[2] I
wbs_sel_i[3] I
wbs_stb_i I
wbs_we_i I

*D_NET *1 0.283433
*CONN
*P io_in[0] I
*I *419:io_in[0] I *D micro_irritating_maze
*CAP
1 io_in[0] 0.00416086
2 *419:io_in[0] 0.00304294
3 *1:19 0.00502793
4 *1:13 0.0918329
5 *1:11 0.0944887
6 *1:7 0.00880159
7 *419:io_in[0] *39:11 0.0116887
8 *419:io_in[0] *77:9 0.000693125
9 *419:io_in[0] *88:9 0.00813848
10 *419:io_in[0] *229:24 0.000596808
11 *419:io_in[0] *250:15 0.000166947
12 *419:io_in[0] *324:13 0
13 *419:io_in[0] *404:14 0
14 *1:11 *238:32 0
15 *1:11 *302:13 0
16 *1:13 *12:13 0
17 *1:13 *222:14 0.0516014
18 *1:19 *12:13 0.000493421
19 *1:19 *50:15 0.00167703
20 *1:19 *222:14 0.00102213
*RES
1 io_in[0] *1:7 37.125 
2 *1:7 *1:11 41.85 
3 *1:11 *1:13 703.44 
4 *1:13 *1:19 22.23 
5 *1:19 *419:io_in[0] 49.455 
*END

*D_NET *2 0.540889
*CONN
*P io_in[10] I
*I *419:io_in[10] I *D micro_irritating_maze
*CAP
1 io_in[10] 0.117677
2 *419:io_in[10] 0.00113766
3 *2:9 0.0195212
4 *2:7 0.0183836
5 *2:5 0.117677
6 *419:io_in[10] *41:19 7.2661e-05
7 *2:5 io_out[28] 0.00334655
8 *2:9 *4:9 0.219489
9 *2:9 *8:13 0.000502806
10 *2:9 *10:13 0.00204033
11 *2:9 *15:21 0.00847893
12 *2:9 *20:9 0.00630295
13 *2:9 *25:9 0.0262582
*RES
1 io_in[10] *2:5 944.145 
2 *2:5 *2:7 4.5 
3 *2:7 *2:9 543.69 
4 *2:9 *419:io_in[10] 10.665 
*END

*D_NET *3 0.422401
*CONN
*P io_in[11] I
*I *419:io_in[11] I *D micro_irritating_maze
*CAP
1 io_in[11] 0.102182
2 *419:io_in[11] 0.000216647
3 *3:13 0.0281699
4 *3:11 0.0279532
5 *3:9 0.0738823
6 *3:7 0.0738823
7 *3:5 0.102182
8 *419:io_in[11] *93:10 7.68541e-05
9 *3:9 *150:21 0.00142498
10 *3:9 *274:25 0.00898488
11 *3:13 *79:12 0
12 *3:13 *177:29 0.00344589
*RES
1 io_in[11] *3:5 818.325 
2 *3:5 *3:7 4.5 
3 *3:7 *3:9 610.177 
4 *3:9 *3:11 4.5 
5 *3:11 *3:13 50.5364 
6 *3:13 *419:io_in[11] 10.6875 
*END

*D_NET *4 0.565984
*CONN
*P io_in[12] I
*I *419:io_in[12] I *D micro_irritating_maze
*CAP
1 io_in[12] 0.118143
2 *419:io_in[12] 0.00109571
3 *4:9 0.0477465
4 *4:7 0.0466508
5 *4:5 0.118143
6 *419:io_in[12] *41:19 0
7 *4:9 *10:13 0.000302795
8 *4:9 *11:13 0.00231561
9 *4:9 *15:21 0.00160357
10 *4:9 *20:9 0
11 *4:9 *38:17 0.00650563
12 *4:9 *97:9 0.00398858
13 *2:9 *4:9 0.219489
*RES
1 io_in[12] *4:5 943.965 
2 *4:5 *4:7 4.5 
3 *4:7 *4:9 679.77 
4 *4:9 *419:io_in[12] 10.485 
*END

*D_NET *5 0.69606
*CONN
*P io_in[13] I
*I *419:io_in[13] I *D micro_irritating_maze
*CAP
1 io_in[13] 0.00111227
2 *419:io_in[13] 0.000878065
3 *5:13 0.0611326
4 *5:11 0.0602546
5 *5:9 0.0874277
6 *5:7 0.08854
7 *419:io_in[13] *14:21 0.011193
8 *419:io_in[13] *16:13 0.0008906
9 *419:io_in[13] *40:11 0.00921317
10 *419:io_in[13] *81:15 0.000123545
11 *419:io_in[13] *96:9 0.000921113
12 *419:io_in[13] *100:17 0.00059129
13 *5:7 *6:13 0
14 *5:9 io_out[12] 0.000251205
15 *5:9 io_out[2] 0.00028921
16 *5:9 io_out[7] 0.000275618
17 *5:9 *33:11 0.000412177
18 *5:9 *35:11 0
19 *5:13 *87:13 0.225726
20 *5:13 *125:9 0.0171637
21 *5:13 *127:9 0.0185972
22 *5:13 *131:9 0.0146231
23 *5:13 *139:9 0.0157689
24 *5:13 *145:9 0.000283553
25 *5:13 *156:17 0
26 *5:13 *160:17 0.0663067
27 *5:13 *191:26 0.0140837
*RES
1 io_in[13] *5:7 12.825 
2 *5:7 *5:9 714.475 
3 *5:9 *5:11 4.5 
4 *5:11 *5:13 394.86 
5 *5:13 *419:io_in[13] 43.3704 
*END

*D_NET *6 0.677988
*CONN
*P io_in[14] I
*I *419:io_in[14] I *D micro_irritating_maze
*CAP
1 io_in[14] 0.00128942
2 *419:io_in[14] 0.00248236
3 *6:17 0.0259717
4 *6:15 0.0234893
5 *6:13 0.118136
6 *6:11 0.118136
7 *6:9 0.00771625
8 *6:7 0.00900567
9 *6:17 *17:13 0.304183
10 *6:17 *19:9 0.00709728
11 *6:17 *22:9 0.00347837
12 *6:17 *60:9 0.0404813
13 *6:17 *91:9 0.0165204
14 *5:7 *6:13 0
*RES
1 io_in[14] *6:7 12.465 
2 *6:7 *6:9 62.55 
3 *6:9 *6:11 4.5 
4 *6:11 *6:13 944.37 
5 *6:13 *6:15 4.5 
6 *6:15 *6:17 753.39 
7 *6:17 *419:io_in[14] 18.765 
*END

*D_NET *7 0.637845
*CONN
*P io_in[15] I
*I *419:io_in[15] I *D micro_irritating_maze
*CAP
1 io_in[15] 0.00107539
2 *419:io_in[15] 0.00053573
3 *7:13 0.111332
4 *7:11 0.110796
5 *7:9 0.0774985
6 *7:7 0.0785738
7 *7:9 io_oeb[18] 0.000181998
8 *7:9 io_out[19] 8.76503e-05
9 *7:9 io_out[21] 0.000158411
10 *7:9 *14:11 0.000205584
11 *7:9 *15:11 6.40635e-05
12 *7:9 *47:21 0.245622
13 *7:13 io_oeb[23] 0
14 *7:13 *419:io_in[8] 0.000279015
15 *7:13 *41:19 0.000315766
16 *7:13 *81:15 0.0101279
17 *7:13 *113:15 0.000153831
18 *7:13 *114:19 0.000837843
*RES
1 io_in[15] *7:7 12.825 
2 *7:7 *7:9 923.67 
3 *7:9 *7:11 4.5 
4 *7:11 *7:13 865.71 
5 *7:13 *419:io_in[15] 7.785 
*END

*D_NET *8 0.553303
*CONN
*P io_in[16] I
*I *419:io_in[16] I *D micro_irritating_maze
*CAP
1 io_in[16] 0.106914
2 *419:io_in[16] 0.00117736
3 *8:13 0.0051456
4 *8:11 0.00396824
5 *8:9 0.0809147
6 *8:7 0.0809147
7 *8:5 0.106914
8 *419:io_in[16] *45:7 0
9 *8:9 *89:13 0.143755
10 *8:13 *10:13 0.00279355
11 *8:13 *15:21 0.000387277
12 *8:13 *53:9 0.0162363
13 *8:13 *90:9 0.00367894
14 *2:9 *8:13 0.000502806
*RES
1 io_in[16] *8:5 821.025 
2 *8:5 *8:7 4.5 
3 *8:7 *8:9 820.53 
4 *8:9 *8:11 4.5 
5 *8:11 *8:13 57.33 
6 *8:13 *419:io_in[16] 11.025 
*END

*D_NET *9 0.437626
*CONN
*P io_in[17] I
*I *419:io_in[17] I *D micro_irritating_maze
*CAP
1 io_in[17] 0.106224
2 *419:io_in[17] 0.000149577
3 *9:13 0.00160155
4 *9:11 0.00145197
5 *9:9 0.0889921
6 *9:7 0.0889921
7 *9:5 0.106224
8 *9:13 io_oeb[23] 0.00144435
9 *9:13 *14:21 0.00137436
10 *9:13 *16:13 0.0166627
11 *9:13 *40:13 0.000136334
12 *9:13 *45:9 0.0237873
13 *9:13 *49:9 0.000462112
14 *9:13 *56:10 0.000122422
*RES
1 io_in[17] *9:5 815.625 
2 *9:5 *9:7 4.5 
3 *9:7 *9:9 708.39 
4 *9:9 *9:11 4.5 
5 *9:11 *9:13 67.05 
6 *9:13 *419:io_in[17] 5.265 
*END

*D_NET *10 0.423618
*CONN
*P io_in[18] I
*I *419:io_in[18] I *D micro_irritating_maze
*CAP
1 io_in[18] 0.105911
2 *419:io_in[18] 0.00105148
3 *10:13 0.00188232
4 *10:11 0.000830837
5 *10:9 0.0766916
6 *10:7 0.0766916
7 *10:5 0.105911
8 *419:io_in[18] *47:15 0
9 *419:io_in[18] *86:7 0
10 *10:13 *11:13 0.0289989
11 *10:13 *15:21 0.000895709
12 *10:13 *53:9 0.0196163
13 *2:9 *10:13 0.00204033
14 *4:9 *10:13 0.000302795
15 *8:13 *10:13 0.00279355
*RES
1 io_in[18] *10:5 812.925 
2 *10:5 *10:7 4.5 
3 *10:7 *10:9 607.41 
4 *10:9 *10:11 4.5 
5 *10:11 *10:13 74.07 
6 *10:13 *419:io_in[18] 10.665 
*END

*D_NET *11 0.384341
*CONN
*P io_in[19] I
*I *419:io_in[19] I *D micro_irritating_maze
*CAP
1 io_in[19] 0.105567
2 *419:io_in[19] 0.00106342
3 *11:13 0.00674837
4 *11:11 0.00568496
5 *11:9 0.0633994
6 *11:7 0.0633994
7 *11:5 0.105567
8 *419:io_in[19] *48:7 0
9 *419:io_in[19] *87:7 0
10 *11:13 *53:9 0.000750846
11 *11:13 *97:9 0.000847241
12 *4:9 *11:13 0.00231561
13 *10:13 *11:13 0.0289989
*RES
1 io_in[19] *11:5 810.225 
2 *11:5 *11:7 4.5 
3 *11:7 *11:9 500.85 
4 *11:9 *11:11 4.5 
5 *11:11 *11:13 81.09 
6 *11:13 *419:io_in[19] 10.485 
*END

*D_NET *12 0.228803
*CONN
*P io_in[1] I
*I *419:io_in[1] I *D micro_irritating_maze
*CAP
1 io_in[1] 0.00426416
2 *419:io_in[1] 0.00190646
3 *12:13 0.096892
4 *12:11 0.0992497
5 *419:io_in[1] *419:io_in[2] 0.0049477
6 *419:io_in[1] *50:15 0.000754364
7 *419:io_in[1] *77:9 0.0103107
8 *419:io_in[1] *331:17 0.000238161
9 *12:13 *419:io_in[3] 6.30201e-05
10 *12:13 *77:13 0
11 *12:13 *257:15 0.00836193
12 *12:13 *330:17 0.00132141
13 *1:13 *12:13 0
14 *1:19 *12:13 0.000493421
*RES
1 io_in[1] *12:11 42.615 
2 *12:11 *12:13 744.57 
3 *12:13 *419:io_in[1] 41.535 
*END

*D_NET *13 0.359946
*CONN
*P io_in[20] I
*I *419:io_in[20] I *D micro_irritating_maze
*CAP
1 io_in[20] 0.00253003
2 *419:io_in[20] 0.00271348
3 *13:13 0.1115
4 *13:11 0.108786
5 *13:9 0.0507458
6 *13:7 0.0532758
7 *419:io_in[20] *89:7 0
8 *13:13 *51:9 0.0303953
*RES
1 io_in[20] *13:7 23.625 
2 *13:7 *13:9 405.27 
3 *13:9 *13:11 4.5 
4 *13:11 *13:13 876.51 
5 *13:13 *419:io_in[20] 21.285 
*END

*D_NET *14 0.445748
*CONN
*P io_in[21] I
*I *419:io_in[21] I *D micro_irritating_maze
*CAP
1 io_in[21] 0.0013281
2 *419:io_in[21] 0.000114964
3 *14:21 0.00308535
4 *14:19 0.00297039
5 *14:17 0.016959
6 *14:15 0.016959
7 *14:13 0.102719
8 *14:11 0.104047
9 *419:io_in[21] *51:7 0
10 *419:io_in[21] *90:7 0
11 *14:17 *53:13 0.00656498
12 *14:17 *90:13 0.120381
13 *14:17 *113:15 0.000974595
14 *14:17 *116:9 0.00536708
15 *14:17 *118:9 0.00386238
16 *14:17 *120:9 0.0032874
17 *14:17 *144:9 0.00699635
18 *14:17 *151:17 0.0121903
19 *14:17 *170:9 0.00776903
20 *14:17 *232:24 0.00566196
21 *14:21 *16:13 0.000575458
22 *14:21 *45:9 0.000691183
23 *14:21 *56:10 0.00766034
24 *14:21 *96:9 0.00256581
25 *14:21 *100:17 0.000244144
26 *419:io_in[13] *14:21 0.011193
27 *7:9 *14:11 0.000205584
28 *9:13 *14:21 0.00137436
*RES
1 io_in[21] *14:11 19.575 
2 *14:11 *14:13 828.402 
3 *14:13 *14:15 4.5 
4 *14:15 *14:17 119.34 
5 *14:17 *14:19 4.5 
6 *14:19 *14:21 62.7782 
7 *14:21 *419:io_in[21] 5.265 
*END

*D_NET *15 0.371707
*CONN
*P io_in[22] I
*I *419:io_in[22] I *D micro_irritating_maze
*CAP
1 io_in[22] 0.00125184
2 *419:io_in[22] 0.00104021
3 *15:21 0.00295206
4 *15:19 0.00191185
5 *15:17 0.00929117
6 *15:15 0.00929117
7 *15:13 0.100958
8 *15:11 0.102209
9 *419:io_in[22] *52:7 0
10 *419:io_in[22] *91:7 0
11 *15:13 *323:13 0.00254234
12 *15:17 *48:13 0
13 *15:17 *87:13 0.0888648
14 *15:17 *123:9 0.000552449
15 *15:17 *150:17 0.000293178
16 *15:17 *156:17 0.00511602
17 *15:21 *25:9 0.00066459
18 *15:21 *53:9 0.003269
19 *15:21 *63:11 0.000101561
20 *15:21 *90:9 0.0259763
21 *15:21 *97:9 0.00399189
22 *2:9 *15:21 0.00847893
23 *4:9 *15:21 0.00160357
24 *7:9 *15:11 6.40635e-05
25 *8:13 *15:21 0.000387277
26 *10:13 *15:21 0.000895709
*RES
1 io_in[22] *15:11 18.495 
2 *15:11 *15:13 822.616 
3 *15:13 *15:15 4.5 
4 *15:15 *15:17 77.0345 
5 *15:17 *15:19 4.5 
6 *15:19 *15:21 72.8839 
7 *15:21 *419:io_in[22] 10.845 
*END

*D_NET *16 0.280166
*CONN
*P io_in[23] I
*I *419:io_in[23] I *D micro_irritating_maze
*CAP
1 io_in[23] 0.109448
2 *419:io_in[23] 0.000145113
3 *16:13 0.00413555
4 *16:11 0.00399044
5 *16:9 0.00662948
6 *16:7 0.00662948
7 *16:5 0.109448
8 *419:io_in[23] *53:7 0
9 *419:io_in[23] *92:7 0
10 *16:9 *81:19 0.000411011
11 *16:9 *92:13 0.0138438
12 *16:9 *97:15 0.00130389
13 *16:13 io_oeb[23] 0.00543116
14 *16:13 *49:9 0.000622199
15 *419:io_in[13] *16:13 0.0008906
16 *9:13 *16:13 0.0166627
17 *14:21 *16:13 0.000575458
*RES
1 io_in[23] *16:5 839.925 
2 *16:5 *16:7 4.5 
3 *16:7 *16:9 70.29 
4 *16:9 *16:11 4.5 
5 *16:11 *16:13 68.67 
6 *16:13 *419:io_in[23] 5.445 
*END

*D_NET *17 0.450627
*CONN
*P io_in[24] I
*I *419:io_in[24] I *D micro_irritating_maze
*CAP
1 io_in[24] 0.00291471
2 *419:io_in[24] 0.00218357
3 *17:13 0.062863
4 *17:11 0.0635941
5 *419:io_in[24] *54:7 0
6 *17:13 *52:9 0.00752993
7 *17:13 *58:9 0
8 *17:13 *60:9 0.000515358
9 *17:13 *91:9 0.00684345
10 *6:17 *17:13 0.304183
*RES
1 io_in[24] *17:11 27.5561 
2 *17:11 *17:13 881.399 
3 *17:13 *419:io_in[24] 18.585 
*END

*D_NET *18 0.428488
*CONN
*P io_in[25] I
*I *419:io_in[25] I *D micro_irritating_maze
*CAP
1 io_in[25] 0.000142175
2 *419:io_in[25] 0.00287706
3 *18:13 0.0682929
4 *18:11 0.065558
5 *419:io_in[25] *55:7 0
6 *419:io_in[25] *94:7 0
7 *18:13 *57:9 0.291618
*RES
1 io_in[25] *18:11 5.805 
2 *18:11 *18:13 835.29 
3 *18:13 *419:io_in[25] 23.805 
*END

*D_NET *19 0.35702
*CONN
*P io_in[26] I
*I *419:io_in[26] I *D micro_irritating_maze
*CAP
1 io_in[26] 0.000445252
2 *419:io_in[26] 0.00258972
3 *19:9 0.059929
4 *19:7 0.0577846
5 *419:io_in[26] *95:7 0
6 *19:9 *22:9 0.229174
7 *6:17 *19:9 0.00709728
*RES
1 io_in[26] *19:7 7.965 
2 *19:7 *19:9 771.75 
3 *19:9 *419:io_in[26] 19.845 
*END

*D_NET *20 0.303968
*CONN
*P io_in[27] I
*I *419:io_in[27] I *D micro_irritating_maze
*CAP
1 io_in[27] 0.00188487
2 *419:io_in[27] 0.00108431
3 *20:9 0.0590381
4 *20:7 0.0598386
5 *419:io_in[27] *57:7 0
6 *419:io_in[27] *96:7 0
7 *20:9 *25:9 0.175819
8 *20:9 *48:9 0
9 *20:9 *87:9 0
10 *2:9 *20:9 0.00630295
11 *4:9 *20:9 0
*RES
1 io_in[27] *20:7 16.065 
2 *20:7 *20:9 708.03 
3 *20:9 *419:io_in[27] 11.745 
*END

*D_NET *21 0.481282
*CONN
*P io_in[28] I
*I *419:io_in[28] I *D micro_irritating_maze
*CAP
1 io_in[28] 0.000106045
2 *419:io_in[28] 0.00269003
3 *21:13 0.0131071
4 *21:11 0.0105231
5 *419:io_in[28] *58:7 0
6 *419:io_in[28] *97:7 0
7 *21:13 *24:11 0.00400379
8 *21:13 *24:13 0.19297
9 *21:13 *57:9 0.257881
*RES
1 io_in[28] *21:11 5.445 
2 *21:11 *21:13 644.13 
3 *21:13 *419:io_in[28] 23.445 
*END

*D_NET *22 0.461151
*CONN
*P io_in[29] I
*I *419:io_in[29] I *D micro_irritating_maze
*CAP
1 io_in[29] 0.000483758
2 *419:io_in[29] 0.00216918
3 *22:9 0.00572123
4 *22:7 0.0040358
5 *419:io_in[29] *59:7 0
6 *419:io_in[29] *98:7 0
7 *22:9 *60:9 0.216088
8 *6:17 *22:9 0.00347837
9 *19:9 *22:9 0.229174
*RES
1 io_in[29] *22:7 8.145 
2 *22:7 *22:9 580.59 
3 *22:9 *419:io_in[29] 19.665 
*END

*D_NET *23 0.234216
*CONN
*P io_in[2] I
*I *419:io_in[2] I *D micro_irritating_maze
*CAP
1 io_in[2] 0.018213
2 *419:io_in[2] 0.001421
3 *23:13 0.079132
4 *23:11 0.077711
5 *23:9 0.0110831
6 *23:7 0.0110831
7 *23:5 0.018213
8 *419:io_in[2] *39:11 0.000113571
9 *419:io_in[2] *50:15 0.00450192
10 *419:io_in[2] *77:9 0.000249514
11 *419:io_in[2] *251:15 0.000251323
12 *23:9 *225:26 0
13 *23:13 io_oeb[0] 0
14 *23:13 *77:13 0
15 *23:13 *185:14 0.00231494
16 *23:13 *276:17 0.00238191
17 *23:13 *334:17 0.00259929
18 *419:io_in[1] *419:io_in[2] 0.0049477
*RES
1 io_in[2] *23:5 146.025 
2 *23:5 *23:7 4.5 
3 *23:7 *23:9 86.31 
4 *23:9 *23:11 4.5 
5 *23:11 *23:13 606.69 
6 *23:13 *419:io_in[2] 30.375 
*END

*D_NET *24 0.268434
*CONN
*P io_in[30] I
*I *419:io_in[30] I *D micro_irritating_maze
*CAP
1 io_in[30] 0.00233875
2 *419:io_in[30] 0.00256693
3 *24:13 0.033391
4 *24:11 0.0331629
5 *419:io_in[30] *60:7 0
6 *419:io_in[30] *100:7 0
7 *21:13 *24:11 0.00400379
8 *21:13 *24:13 0.19297
*RES
1 io_in[30] *24:11 35.955 
2 *24:11 *24:13 486.36 
3 *24:13 *419:io_in[30] 23.265 
*END

*D_NET *25 0.256854
*CONN
*P io_in[31] I
*I *419:io_in[31] I *D micro_irritating_maze
*CAP
1 io_in[31] 0.0017171
2 *419:io_in[31] 0.00098872
3 *25:9 0.0132259
4 *25:7 0.0139542
5 *419:io_in[31] *62:7 0
6 *419:io_in[31] *101:7 0
7 *25:9 *63:11 0.0158346
8 *25:9 *90:9 0.00839221
9 *2:9 *25:9 0.0262582
10 *15:21 *25:9 0.00066459
11 *20:9 *25:9 0.175819
*RES
1 io_in[31] *25:7 16.245 
2 *25:7 *25:9 453.15 
3 *25:9 *419:io_in[31] 11.565 
*END

*D_NET *32 0.251423
*CONN
*P io_in[3] I
*I *419:io_in[3] I *D micro_irritating_maze
*CAP
1 io_in[3] 0.0937958
2 *419:io_in[3] 0.00102878
3 *32:9 0.0298649
4 *32:7 0.0288361
5 *32:5 0.0937958
6 *419:io_in[3] *77:13 0.000482995
7 *419:io_in[3] *300:17 0.000255951
8 *32:9 *50:17 0
9 *32:9 *357:5 0.00330012
10 *12:13 *419:io_in[3] 6.30201e-05
*RES
1 io_in[3] *32:5 749.925 
2 *32:5 *32:7 4.5 
3 *32:7 *32:9 151.65 
4 *32:9 *419:io_in[3] 12.825 
*END

*D_NET *33 0.245733
*CONN
*P io_in[4] I
*I *419:io_in[4] I *D micro_irritating_maze
*CAP
1 io_in[4] 0.00144515
2 *419:io_in[4] 0.0026236
3 *33:17 0.0295926
4 *33:15 0.0269689
5 *33:13 0.0916226
6 *33:11 0.0930677
7 *33:17 *325:13 0
8 *33:17 *358:13 0
9 *5:9 *33:11 0.000412177
*RES
1 io_in[4] *33:11 21.015 
2 *33:11 *33:13 733.95 
3 *33:13 *33:15 4.5 
4 *33:15 *33:17 198.27 
5 *33:17 *419:io_in[4] 20.025 
*END

*D_NET *34 0.25661
*CONN
*P io_in[5] I
*I *419:io_in[5] I *D micro_irritating_maze
*CAP
1 io_in[5] 0.0924228
2 *419:io_in[5] 0.00258727
3 *34:9 0.0355999
4 *34:7 0.0330126
5 *34:5 0.0924228
6 *419:io_in[5] *213:17 0.000564513
7 *34:9 *358:13 0
*RES
1 io_in[5] *34:5 740.025 
2 *34:5 *34:7 4.5 
3 *34:7 *34:9 251.01 
4 *34:9 *419:io_in[5] 22.725 
*END

*D_NET *35 0.268846
*CONN
*P io_in[6] I
*I *419:io_in[6] I *D micro_irritating_maze
*CAP
1 io_in[6] 0.00151253
2 *419:io_in[6] 0.00346932
3 *35:17 0.0417703
4 *35:15 0.038301
5 *35:13 0.0911403
6 *35:11 0.0926528
7 *5:9 *35:11 0
*RES
1 io_in[6] *35:11 19.755 
2 *35:11 *35:13 730.35 
3 *35:13 *35:15 4.5 
4 *35:15 *35:17 297.09 
5 *35:17 *419:io_in[6] 25.425 
*END

*D_NET *36 0.282178
*CONN
*P io_in[7] I
*I *419:io_in[7] I *D micro_irritating_maze
*CAP
1 io_in[7] 0.0846393
2 *419:io_in[7] 0.0103706
3 *36:11 0.0103706
4 *36:9 0.0443885
5 *36:7 0.0443885
6 *36:5 0.0846393
7 *419:io_in[7] *159:17 0.0033817
*RES
1 io_in[7] *36:5 677.925 
2 *36:5 *36:7 4.5 
3 *36:7 *36:9 350.37 
4 *36:9 *36:11 4.5 
5 *36:11 *419:io_in[7] 80.325 
*END

*D_NET *37 0.342214
*CONN
*P io_in[8] I
*I *419:io_in[8] I *D micro_irritating_maze
*CAP