*SPEF "ieee 1481-1999"
*DESIGN "user_project_wrapper"
*DATE "11:11:11 Fri 11 11, 1111"
*VENDOR "OpenRCX"
*PROGRAM "Parallel Extraction"
*VERSION "1.0"
*DESIGN_FLOW "NAME_SCOPE LOCAL" "PIN_CAP NONE"
*DIVIDER /
*DELIMITER :
*BUS_DELIMITER []
*T_UNIT 1 NS
*C_UNIT 1 PF
*R_UNIT 1 OHM
*L_UNIT 1 HENRY

*NAME_MAP
*1 io_in[0]
*2 io_in[10]
*3 io_in[11]
*4 io_in[12]
*5 io_in[13]
*6 io_in[14]
*7 io_in[15]
*8 io_in[16]
*9 io_in[17]
*10 io_in[18]
*11 io_in[19]
*12 io_in[1]
*13 io_in[20]
*14 io_in[21]
*15 io_in[22]
*16 io_in[23]
*17 io_in[24]
*18 io_in[25]
*19 io_in[26]
*20 io_in[27]
*21 io_in[28]
*22 io_in[29]
*23 io_in[2]
*24 io_in[30]
*25 io_in[31]
*26 io_in[32]
*27 io_in[33]
*28 io_in[34]
*29 io_in[35]
*30 io_in[36]
*31 io_in[37]
*32 io_in[3]
*33 io_in[4]
*34 io_in[5]
*35 io_in[6]
*36 io_in[7]
*37 io_in[8]
*38 io_in[9]
*39 io_oeb[0]
*40 io_oeb[10]
*41 io_oeb[11]
*42 io_oeb[12]
*43 io_oeb[13]
*44 io_oeb[14]
*45 io_oeb[15]
*46 io_oeb[16]
*47 io_oeb[17]
*48 io_oeb[18]
*49 io_oeb[19]
*50 io_oeb[1]
*51 io_oeb[20]
*52 io_oeb[21]
*53 io_oeb[22]
*54 io_oeb[23]
*55 io_oeb[24]
*56 io_oeb[25]
*57 io_oeb[26]
*58 io_oeb[27]
*59 io_oeb[28]
*60 io_oeb[29]
*61 io_oeb[2]
*62 io_oeb[30]
*63 io_oeb[31]
*64 io_oeb[32]
*65 io_oeb[33]
*66 io_oeb[34]
*67 io_oeb[35]
*68 io_oeb[36]
*69 io_oeb[37]
*70 io_oeb[3]
*71 io_oeb[4]
*72 io_oeb[5]
*73 io_oeb[6]
*74 io_oeb[7]
*75 io_oeb[8]
*76 io_oeb[9]
*77 io_out[0]
*78 io_out[10]
*79 io_out[11]
*80 io_out[12]
*81 io_out[13]
*82 io_out[14]
*83 io_out[15]
*84 io_out[16]
*85 io_out[17]
*86 io_out[18]
*87 io_out[19]
*88 io_out[1]
*89 io_out[20]
*90 io_out[21]
*91 io_out[22]
*92 io_out[23]
*93 io_out[24]
*94 io_out[25]
*95 io_out[26]
*96 io_out[27]
*97 io_out[28]
*98 io_out[29]
*99 io_out[2]
*100 io_out[30]
*101 io_out[31]
*102 io_out[32]
*103 io_out[33]
*104 io_out[34]
*105 io_out[35]
*106 io_out[36]
*107 io_out[37]
*108 io_out[3]
*109 io_out[4]
*110 io_out[5]
*111 io_out[6]
*112 io_out[7]
*113 io_out[8]
*114 io_out[9]
*115 la_data_in[0]
*116 la_data_in[10]
*117 la_data_in[11]
*118 la_data_in[12]
*119 la_data_in[13]
*120 la_data_in[14]
*121 la_data_in[15]
*122 la_data_in[16]
*123 la_data_in[17]
*124 la_data_in[18]
*125 la_data_in[19]
*126 la_data_in[1]
*127 la_data_in[20]
*128 la_data_in[21]
*129 la_data_in[22]
*130 la_data_in[23]
*131 la_data_in[24]
*132 la_data_in[25]
*133 la_data_in[26]
*134 la_data_in[27]
*135 la_data_in[28]
*136 la_data_in[29]
*137 la_data_in[2]
*138 la_data_in[30]
*139 la_data_in[31]
*140 la_data_in[32]
*141 la_data_in[33]
*142 la_data_in[34]
*143 la_data_in[35]
*144 la_data_in[36]
*145 la_data_in[37]
*146 la_data_in[38]
*147 la_data_in[39]
*148 la_data_in[3]
*149 la_data_in[40]
*150 la_data_in[41]
*151 la_data_in[42]
*152 la_data_in[43]
*153 la_data_in[44]
*154 la_data_in[45]
*155 la_data_in[46]
*156 la_data_in[47]
*157 la_data_in[48]
*158 la_data_in[49]
*159 la_data_in[4]
*160 la_data_in[50]
*161 la_data_in[51]
*162 la_data_in[52]
*163 la_data_in[53]
*164 la_data_in[54]
*165 la_data_in[55]
*166 la_data_in[56]
*167 la_data_in[57]
*168 la_data_in[58]
*169 la_data_in[59]
*170 la_data_in[5]
*171 la_data_in[60]
*172 la_data_in[61]
*173 la_data_in[62]
*174 la_data_in[63]
*175 la_data_in[6]
*176 la_data_in[7]
*177 la_data_in[8]
*178 la_data_in[9]
*179 la_data_out[0]
*180 la_data_out[10]
*181 la_data_out[11]
*182 la_data_out[12]
*183 la_data_out[13]
*184 la_data_out[14]
*185 la_data_out[15]
*186 la_data_out[16]
*187 la_data_out[17]
*188 la_data_out[18]
*189 la_data_out[19]
*190 la_data_out[1]
*191 la_data_out[20]
*192 la_data_out[21]
*193 la_data_out[22]
*194 la_data_out[23]
*195 la_data_out[24]
*196 la_data_out[25]
*197 la_data_out[26]
*198 la_data_out[27]
*199 la_data_out[28]
*200 la_data_out[29]
*201 la_data_out[2]
*202 la_data_out[30]
*203 la_data_out[31]
*204 la_data_out[32]
*205 la_data_out[33]
*206 la_data_out[34]
*207 la_data_out[35]
*208 la_data_out[36]
*209 la_data_out[37]
*210 la_data_out[38]
*211 la_data_out[39]
*212 la_data_out[3]
*213 la_data_out[40]
*214 la_data_out[41]
*215 la_data_out[42]
*216 la_data_out[43]
*217 la_data_out[44]
*218 la_data_out[45]
*219 la_data_out[46]
*220 la_data_out[47]
*221 la_data_out[48]
*222 la_data_out[49]
*223 la_data_out[4]
*224 la_data_out[50]
*225 la_data_out[51]
*226 la_data_out[52]
*227 la_data_out[53]
*228 la_data_out[54]
*229 la_data_out[55]
*230 la_data_out[56]
*231 la_data_out[57]
*232 la_data_out[58]
*233 la_data_out[59]
*234 la_data_out[5]
*235 la_data_out[60]
*236 la_data_out[61]
*237 la_data_out[62]
*238 la_data_out[63]
*239 la_data_out[6]
*240 la_data_out[7]
*241 la_data_out[8]
*242 la_data_out[9]
*243 la_oenb[0]
*244 la_oenb[10]
*245 la_oenb[11]
*246 la_oenb[12]
*247 la_oenb[13]
*248 la_oenb[14]
*249 la_oenb[15]
*250 la_oenb[16]
*251 la_oenb[17]
*252 la_oenb[18]
*253 la_oenb[19]
*254 la_oenb[1]
*255 la_oenb[20]
*256 la_oenb[21]
*257 la_oenb[22]
*258 la_oenb[23]
*259 la_oenb[24]
*260 la_oenb[25]
*261 la_oenb[26]
*262 la_oenb[27]
*263 la_oenb[28]
*264 la_oenb[29]
*265 la_oenb[2]
*266 la_oenb[30]
*267 la_oenb[31]
*268 la_oenb[32]
*269 la_oenb[33]
*270 la_oenb[34]
*271 la_oenb[35]
*272 la_oenb[36]
*273 la_oenb[37]
*274 la_oenb[38]
*275 la_oenb[39]
*276 la_oenb[3]
*277 la_oenb[40]
*278 la_oenb[41]
*279 la_oenb[42]
*280 la_oenb[43]
*281 la_oenb[44]
*282 la_oenb[45]
*283 la_oenb[46]
*284 la_oenb[47]
*285 la_oenb[48]
*286 la_oenb[49]
*287 la_oenb[4]
*288 la_oenb[50]
*289 la_oenb[51]
*290 la_oenb[52]
*291 la_oenb[53]
*292 la_oenb[54]
*293 la_oenb[55]
*294 la_oenb[56]
*295 la_oenb[57]
*296 la_oenb[58]
*297 la_oenb[59]
*298 la_oenb[5]
*299 la_oenb[60]
*300 la_oenb[61]
*301 la_oenb[62]
*302 la_oenb[63]
*303 la_oenb[6]
*304 la_oenb[7]
*305 la_oenb[8]
*306 la_oenb[9]
*307 user_clock2
*308 user_irq[0]
*309 user_irq[1]
*310 user_irq[2]
*313 wb_clk_i
*314 wb_rst_i
*315 wbs_ack_o
*316 wbs_adr_i[0]
*317 wbs_adr_i[10]
*318 wbs_adr_i[11]
*319 wbs_adr_i[12]
*320 wbs_adr_i[13]
*321 wbs_adr_i[14]
*322 wbs_adr_i[15]
*323 wbs_adr_i[16]
*324 wbs_adr_i[17]
*325 wbs_adr_i[18]
*326 wbs_adr_i[19]
*327 wbs_adr_i[1]
*328 wbs_adr_i[20]
*329 wbs_adr_i[21]
*330 wbs_adr_i[22]
*331 wbs_adr_i[23]
*332 wbs_adr_i[24]
*333 wbs_adr_i[25]
*334 wbs_adr_i[26]
*335 wbs_adr_i[27]
*336 wbs_adr_i[28]
*337 wbs_adr_i[29]
*338 wbs_adr_i[2]
*339 wbs_adr_i[30]
*340 wbs_adr_i[31]
*341 wbs_adr_i[3]
*342 wbs_adr_i[4]
*343 wbs_adr_i[5]
*344 wbs_adr_i[6]
*345 wbs_adr_i[7]
*346 wbs_adr_i[8]
*347 wbs_adr_i[9]
*348 wbs_cyc_i
*349 wbs_dat_i[0]
*350 wbs_dat_i[10]
*351 wbs_dat_i[11]
*352 wbs_dat_i[12]
*353 wbs_dat_i[13]
*354 wbs_dat_i[14]
*355 wbs_dat_i[15]
*356 wbs_dat_i[16]
*357 wbs_dat_i[17]
*358 wbs_dat_i[18]
*359 wbs_dat_i[19]
*360 wbs_dat_i[1]
*361 wbs_dat_i[20]
*362 wbs_dat_i[21]
*363 wbs_dat_i[22]
*364 wbs_dat_i[23]
*365 wbs_dat_i[24]
*366 wbs_dat_i[25]
*367 wbs_dat_i[26]
*368 wbs_dat_i[27]
*369 wbs_dat_i[28]
*370 wbs_dat_i[29]
*371 wbs_dat_i[2]
*372 wbs_dat_i[30]
*373 wbs_dat_i[31]
*374 wbs_dat_i[3]
*375 wbs_dat_i[4]
*376 wbs_dat_i[5]
*377 wbs_dat_i[6]
*378 wbs_dat_i[7]
*379 wbs_dat_i[8]
*380 wbs_dat_i[9]
*381 wbs_dat_o[0]
*382 wbs_dat_o[10]
*383 wbs_dat_o[11]
*384 wbs_dat_o[12]
*385 wbs_dat_o[13]
*386 wbs_dat_o[14]
*387 wbs_dat_o[15]
*388 wbs_dat_o[16]
*389 wbs_dat_o[17]
*390 wbs_dat_o[18]
*391 wbs_dat_o[19]
*392 wbs_dat_o[1]
*393 wbs_dat_o[20]
*394 wbs_dat_o[21]
*395 wbs_dat_o[22]
*396 wbs_dat_o[23]
*397 wbs_dat_o[24]
*398 wbs_dat_o[25]
*399 wbs_dat_o[26]
*400 wbs_dat_o[27]
*401 wbs_dat_o[28]
*402 wbs_dat_o[29]
*403 wbs_dat_o[2]
*404 wbs_dat_o[30]
*405 wbs_dat_o[31]
*406 wbs_dat_o[3]
*407 wbs_dat_o[4]
*408 wbs_dat_o[5]
*409 wbs_dat_o[6]
*410 wbs_dat_o[7]
*411 wbs_dat_o[8]
*412 wbs_dat_o[9]
*413 wbs_sel_i[0]
*414 wbs_sel_i[1]
*415 wbs_sel_i[2]
*416 wbs_sel_i[3]
*417 wbs_stb_i
*418 wbs_we_i
*419 micro_irritating_maze

*PORTS
io_in[0] I
io_in[10] I
io_in[11] I
io_in[12] I
io_in[13] I
io_in[14] I
io_in[15] I
io_in[16] I
io_in[17] I
io_in[18] I
io_in[19] I
io_in[1] I
io_in[20] I
io_in[21] I
io_in[22] I
io_in[23] I
io_in[24] I
io_in[25] I
io_in[26] I
io_in[27] I
io_in[28] I
io_in[29] I
io_in[2] I
io_in[30] I
io_in[31] I
io_in[32] I
io_in[33] I
io_in[34] I
io_in[35] I
io_in[36] I
io_in[37] I
io_in[3] I
io_in[4] I
io_in[5] I
io_in[6] I
io_in[7] I
io_in[8] I
io_in[9] I
io_oeb[0] O
io_oeb[10] O
io_oeb[11] O
io_oeb[12] O
io_oeb[13] O
io_oeb[14] O
io_oeb[15] O
io_oeb[16] O
io_oeb[17] O
io_oeb[18] O
io_oeb[19] O
io_oeb[1] O
io_oeb[20] O
io_oeb[21] O
io_oeb[22] O
io_oeb[23] O
io_oeb[24] O
io_oeb[25] O
io_oeb[26] O
io_oeb[27] O
io_oeb[28] O
io_oeb[29] O
io_oeb[2] O
io_oeb[30] O
io_oeb[31] O
io_oeb[32] O
io_oeb[33] O
io_oeb[34] O
io_oeb[35] O
io_oeb[36] O
io_oeb[37] O
io_oeb[3] O
io_oeb[4] O
io_oeb[5] O
io_oeb[6] O
io_oeb[7] O
io_oeb[8] O
io_oeb[9] O
io_out[0] O
io_out[10] O
io_out[11] O
io_out[12] O
io_out[13] O
io_out[14] O
io_out[15] O
io_out[16] O
io_out[17] O
io_out[18] O
io_out[19] O
io_out[1] O
io_out[20] O
io_out[21] O
io_out[22] O
io_out[23] O
io_out[24] O
io_out[25] O
io_out[26] O
io_out[27] O
io_out[28] O
io_out[29] O
io_out[2] O
io_out[30] O
io_out[31] O
io_out[32] O
io_out[33] O
io_out[34] O
io_out[35] O
io_out[36] O
io_out[37] O
io_out[3] O
io_out[4] O
io_out[5] O
io_out[6] O
io_out[7] O
io_out[8] O
io_out[9] O
la_data_in[0] I
la_data_in[10] I
la_data_in[11] I
la_data_in[12] I
la_data_in[13] I
la_data_in[14] I
la_data_in[15] I
la_data_in[16] I
la_data_in[17] I
la_data_in[18] I
la_data_in[19] I
la_data_in[1] I
la_data_in[20] I
la_data_in[21] I
la_data_in[22] I
la_data_in[23] I
la_data_in[24] I
la_data_in[25] I
la_data_in[26] I
la_data_in[27] I
la_data_in[28] I
la_data_in[29] I
la_data_in[2] I
la_data_in[30] I
la_data_in[31] I
la_data_in[32] I
la_data_in[33] I
la_data_in[34] I
la_data_in[35] I
la_data_in[36] I
la_data_in[37] I
la_data_in[38] I
la_data_in[39] I
la_data_in[3] I
la_data_in[40] I
la_data_in[41] I
la_data_in[42] I
la_data_in[43] I
la_data_in[44] I
la_data_in[45] I
la_data_in[46] I
la_data_in[47] I
la_data_in[48] I
la_data_in[49] I
la_data_in[4] I
la_data_in[50] I
la_data_in[51] I
la_data_in[52] I
la_data_in[53] I
la_data_in[54] I
la_data_in[55] I
la_data_in[56] I
la_data_in[57] I
la_data_in[58] I
la_data_in[59] I
la_data_in[5] I
la_data_in[60] I
la_data_in[61] I
la_data_in[62] I
la_data_in[63] I
la_data_in[6] I
la_data_in[7] I
la_data_in[8] I
la_data_in[9] I
la_data_out[0] O
la_data_out[10] O
la_data_out[11] O
la_data_out[12] O
la_data_out[13] O
la_data_out[14] O
la_data_out[15] O
la_data_out[16] O
la_data_out[17] O
la_data_out[18] O
la_data_out[19] O
la_data_out[1] O
la_data_out[20] O
la_data_out[21] O
la_data_out[22] O
la_data_out[23] O
la_data_out[24] O
la_data_out[25] O
la_data_out[26] O
la_data_out[27] O
la_data_out[28] O
la_data_out[29] O
la_data_out[2] O
la_data_out[30] O
la_data_out[31] O
la_data_out[32] O
la_data_out[33] O
la_data_out[34] O
la_data_out[35] O
la_data_out[36] O
la_data_out[37] O
la_data_out[38] O
la_data_out[39] O
la_data_out[3] O
la_data_out[40] O
la_data_out[41] O
la_data_out[42] O
la_data_out[43] O
la_data_out[44] O
la_data_out[45] O
la_data_out[46] O
la_data_out[47] O
la_data_out[48] O
la_data_out[49] O
la_data_out[4] O
la_data_out[50] O
la_data_out[51] O
la_data_out[52] O
la_data_out[53] O
la_data_out[54] O
la_data_out[55] O
la_data_out[56] O
la_data_out[57] O
la_data_out[58] O
la_data_out[59] O
la_data_out[5] O
la_data_out[60] O
la_data_out[61] O
la_data_out[62] O
la_data_out[63] O
la_data_out[6] O
la_data_out[7] O
la_data_out[8] O
la_data_out[9] O
la_oenb[0] I
la_oenb[10] I
la_oenb[11] I
la_oenb[12] I
la_oenb[13] I
la_oenb[14] I
la_oenb[15] I
la_oenb[16] I
la_oenb[17] I
la_oenb[18] I
la_oenb[19] I
la_oenb[1] I
la_oenb[20] I
la_oenb[21] I
la_oenb[22] I
la_oenb[23] I
la_oenb[24] I
la_oenb[25] I
la_oenb[26] I
la_oenb[27] I
la_oenb[28] I
la_oenb[29] I
la_oenb[2] I
la_oenb[30] I
la_oenb[31] I
la_oenb[32] I
la_oenb[33] I
la_oenb[34] I
la_oenb[35] I
la_oenb[36] I
la_oenb[37] I
la_oenb[38] I
la_oenb[39] I
la_oenb[3] I
la_oenb[40] I
la_oenb[41] I
la_oenb[42] I
la_oenb[43] I
la_oenb[44] I
la_oenb[45] I
la_oenb[46] I
la_oenb[47] I
la_oenb[48] I
la_oenb[49] I
la_oenb[4] I
la_oenb[50] I
la_oenb[51] I
la_oenb[52] I
la_oenb[53] I
la_oenb[54] I
la_oenb[55] I
la_oenb[56] I
la_oenb[57] I
la_oenb[58] I
la_oenb[59] I
la_oenb[5] I
la_oenb[60] I
la_oenb[61] I
la_oenb[62] I
la_oenb[63] I
la_oenb[6] I
la_oenb[7] I
la_oenb[8] I
la_oenb[9] I
user_clock2 I
user_irq[0] O
user_irq[1] O
user_irq[2] O
wb_clk_i I
wb_rst_i I
wbs_ack_o O
wbs_adr_i[0] I
wbs_adr_i[10] I
wbs_adr_i[11] I
wbs_adr_i[12] I
wbs_adr_i[13] I
wbs_adr_i[14] I
wbs_adr_i[15] I
wbs_adr_i[16] I
wbs_adr_i[17] I
wbs_adr_i[18] I
wbs_adr_i[19] I
wbs_adr_i[1] I
wbs_adr_i[20] I
wbs_adr_i[21] I
wbs_adr_i[22] I
wbs_adr_i[23] I
wbs_adr_i[24] I
wbs_adr_i[25] I
wbs_adr_i[26] I
wbs_adr_i[27] I
wbs_adr_i[28] I
wbs_adr_i[29] I
wbs_adr_i[2] I
wbs_adr_i[30] I
wbs_adr_i[31] I
wbs_adr_i[3] I
wbs_adr_i[4] I
wbs_adr_i[5] I
wbs_adr_i[6] I
wbs_adr_i[7] I
wbs_adr_i[8] I
wbs_adr_i[9] I
wbs_cyc_i I
wbs_dat_i[0] I
wbs_dat_i[10] I
wbs_dat_i[11] I
wbs_dat_i[12] I
wbs_dat_i[13] I
wbs_dat_i[14] I
wbs_dat_i[15] I
wbs_dat_i[16] I
wbs_dat_i[17] I
wbs_dat_i[18] I
wbs_dat_i[19] I
wbs_dat_i[1] I
wbs_dat_i[20] I
wbs_dat_i[21] I
wbs_dat_i[22] I
wbs_dat_i[23] I
wbs_dat_i[24] I
wbs_dat_i[25] I
wbs_dat_i[26] I
wbs_dat_i[27] I
wbs_dat_i[28] I
wbs_dat_i[29] I
wbs_dat_i[2] I
wbs_dat_i[30] I
wbs_dat_i[31] I
wbs_dat_i[3] I
wbs_dat_i[4] I
wbs_dat_i[5] I
wbs_dat_i[6] I
wbs_dat_i[7] I
wbs_dat_i[8] I
wbs_dat_i[9] I
wbs_dat_o[0] O
wbs_dat_o[10] O
wbs_dat_o[11] O
wbs_dat_o[12] O
wbs_dat_o[13] O
wbs_dat_o[14] O
wbs_dat_o[15] O
wbs_dat_o[16] O
wbs_dat_o[17] O
wbs_dat_o[18] O
wbs_dat_o[19] O
wbs_dat_o[1] O
wbs_dat_o[20] O
wbs_dat_o[21] O
wbs_dat_o[22] O
wbs_dat_o[23] O
wbs_dat_o[24] O
wbs_dat_o[25] O
wbs_dat_o[26] O
wbs_dat_o[27] O
wbs_dat_o[28] O
wbs_dat_o[29] O
wbs_dat_o[2] O
wbs_dat_o[30] O
wbs_dat_o[31] O
wbs_dat_o[3] O
wbs_dat_o[4] O
wbs_dat_o[5] O
wbs_dat_o[6] O
wbs_dat_o[7] O
wbs_dat_o[8] O
wbs_dat_o[9] O
wbs_sel_i[0] I
wbs_sel_i[1] I
wbs_sel_i[2] I
wbs_sel_i[3] I
wbs_stb_i I
wbs_we_i I

*D_NET *1 0.304965
*CONN
*P io_in[0] I
*I *419:io_in[0] I *D micro_irritating_maze
*CAP
1 io_in[0] 0.00441471
2 *419:io_in[0] 0.000538458
3 *1:21 0.00343876
4 *1:19 0.00506536
5 *1:13 0.0975185
6 *1:11 0.100256
7 *1:7 0.00931727
8 *419:io_in[0] *229:24 0.000624974
9 *419:io_in[0] *250:15 0.000182402
10 *419:io_in[0] *404:14 0
11 *1:11 *238:30 0
12 *1:11 *302:13 0
13 *1:13 *12:13 0
14 *1:13 *222:14 0.0565951
15 *1:19 *12:13 0.00050918
16 *1:19 *50:15 0.00192243
17 *1:19 *222:14 0.00111932
18 *1:21 *39:11 0.0134027
19 *1:21 *77:11 0.000728272
20 *1:21 *88:9 0.00933163
21 *1:21 *324:13 0
*RES
1 io_in[0] *1:7 42.2 
2 *1:7 *1:11 47.66 
3 *1:11 *1:13 812.864 
4 *1:13 *1:19 24.988 
5 *1:19 *1:21 46.28 
6 *1:21 *419:io_in[0] 10.168 
*END

*D_NET *2 0.592913
*CONN
*P io_in[10] I
*I *419:io_in[10] I *D micro_irritating_maze
*CAP
1 io_in[10] 0.124402
2 *419:io_in[10] 0.00129291
3 *2:9 0.0211168
4 *2:7 0.0198239
5 *2:5 0.124402
6 *419:io_in[10] *41:19 7.49324e-05
7 *2:5 io_out[28] 0.00383609
8 *2:9 *4:9 0.251532
9 *2:9 *8:13 0.000561493
10 *2:9 *10:13 0.00225615
11 *2:9 *15:21 0.0097164
12 *2:9 *20:9 0.00654679
13 *2:9 *25:9 0.0273519
*RES
1 io_in[10] *2:5 1091.01 
2 *2:5 *2:7 4.5 
3 *2:7 *2:9 628.264 
4 *2:9 *419:io_in[10] 11.624 
*END

*D_NET *3 0.450235
*CONN
*P io_in[11] I
*I *419:io_in[11] I *D micro_irritating_maze
*CAP
1 io_in[11] 0.107956
2 *419:io_in[11] 0.000231252
3 *3:13 0.0312444
4 *3:11 0.0310131
5 *3:9 0.0781707
6 *3:7 0.0781707
7 *3:5 0.107956
8 *419:io_in[11] *93:10 8.08005e-05
9 *3:9 *150:21 0.00146105
10 *3:9 *274:25 0.0102905
11 *3:13 *79:12 0
12 *3:13 *177:29 0.00366125
*RES
1 io_in[11] *3:5 945.62 
2 *3:5 *3:7 4.5 
3 *3:7 *3:9 705.094 
4 *3:9 *3:11 4.5 
5 *3:11 *3:13 58.9591 
6 *3:13 *419:io_in[11] 10.95 
*END

*D_NET *4 0.618317
*CONN
*P io_in[12] I
*I *419:io_in[12] I *D micro_irritating_maze
*CAP
1 io_in[12] 0.124876
2 *419:io_in[12] 0.00123506
3 *4:9 0.0506768
4 *4:7 0.0494418
5 *4:5 0.124876
6 *419:io_in[12] *41:19 0
7 *4:9 *10:13 0.000344327
8 *4:9 *11:13 0.00256055
9 *4:9 *15:21 0.00170497
10 *4:9 *20:9 0
11 *4:9 *38:17 0.00682358
12 *4:9 *97:9 0.0042456
13 *2:9 *4:9 0.251532
*RES
1 io_in[12] *4:5 1090.8 
2 *4:5 *4:7 4.5 
3 *4:7 *4:9 785.512 
4 *4:9 *419:io_in[12] 11.416 
*END

*D_NET *5 0.762923
*CONN
*P io_in[13] I
*I *419:io_in[13] I *D micro_irritating_maze
*CAP
1 io_in[13] 0.00119074
2 *419:io_in[13] 0.000984378
3 *5:13 0.0644367
4 *5:11 0.0634523
5 *5:9 0.0922555
6 *5:7 0.0934463
7 *419:io_in[13] *9:13 0.00010057
8 *419:io_in[13] *14:21 0.0128283
9 *419:io_in[13] *16:13 0.000984807
10 *419:io_in[13] *40:11 0.0105584
11 *419:io_in[13] *81:15 0.000128631
12 *419:io_in[13] *96:9 0.000962309
13 *419:io_in[13] *100:17 0.000617762
14 *5:7 *6:13 0
15 *5:9 io_out[12] 0.000262273
16 *5:9 io_out[2] 0.000303515
17 *5:9 io_out[7] 0.000288684
18 *5:9 *33:11 0.000432796
19 *5:9 *35:11 0
20 *5:13 *87:13 0.258369
21 *5:13 *125:9 0.019094
22 *5:13 *127:9 0.0204272
23 *5:13 *131:9 0.0170685
24 *5:13 *139:9 0.0173809
25 *5:13 *145:9 0.000308209
26 *5:13 *156:17 0
27 *5:13 *160:17 0.0704715
28 *5:13 *191:26 0.0165693
*RES
1 io_in[13] *5:7 14.12 
2 *5:7 *5:9 825.615 
3 *5:9 *5:11 4.5 
4 *5:11 *5:13 460.67 
5 *5:13 *419:io_in[13] 48.7169 
*END

*D_NET *6 0.746008
*CONN
*P io_in[14] I
*I *419:io_in[14] I *D micro_irritating_maze
*CAP
1 io_in[14] 0.00140064
2 *419:io_in[14] 0.00277713
3 *6:17 0.0281552
4 *6:15 0.0253781
5 *6:13 0.124857
6 *6:11 0.124857
7 *6:9 0.0081447
8 *6:7 0.00954534
9 *6:17 *17:13 0.348588
10 *6:17 *19:9 0.00737195
11 *6:17 *22:9 0.00362239
12 *6:17 *60:9 0.0423774
13 *6:17 *91:9 0.0189324
14 *5:7 *6:13 0
*RES
1 io_in[14] *6:7 13.704 
2 *6:7 *6:9 72.28 
3 *6:9 *6:11 4.5 
4 *6:11 *6:13 1091.27 
5 *6:13 *6:15 4.5 
6 *6:15 *6:17 870.584 
7 *6:17 *419:io_in[14] 20.984 
*END

*D_NET *7 0.69733
*CONN
*P io_in[15] I
*I *419:io_in[15] I *D micro_irritating_maze
*CAP
1 io_in[15] 0.00113656
2 *419:io_in[15] 0.00059419
3 *7:13 0.117693
4 *7:11 0.117099
5 *7:9 0.0820534
6 *7:7 0.0831899
7 *7:9 io_oeb[18] 0.000190467
8 *7:9 io_out[19] 9.14687e-05
9 *7:9 io_out[21] 0.000165717
10 *7:9 *14:11 0.000215216
11 *7:9 *15:11 6.67191e-05
12 *7:9 *47:21 0.281491
13 *7:13 io_oeb[23] 0
14 *7:13 *419:io_in[8] 0.000317285
15 *7:13 *41:19 0.000349168
16 *7:13 *81:15 0.0116225
17 *7:13 *113:15 0.000170103
18 *7:13 *114:19 0.000884606
*RES
1 io_in[15] *7:7 14.12 
2 *7:7 *7:9 1067.35 
3 *7:9 *7:11 4.5 
4 *7:11 *7:13 1000.38 
5 *7:13 *419:io_in[15] 8.296 
*END

*D_NET *8 0.599943
*CONN
*P io_in[16] I
*I *419:io_in[16] I *D micro_irritating_maze
*CAP
1 io_in[16] 0.112994
2 *419:io_in[16] 0.00132438
3 *8:13 0.0055508
4 *8:11 0.00422642
5 *8:9 0.0857168
6 *8:7 0.0857168
7 *8:5 0.112994
8 *419:io_in[16] *45:7 0
9 *8:9 *89:13 0.164753
10 *8:13 *10:13 0.00296624
11 *8:13 *15:21 0.000440397
12 *8:13 *53:9 0.0186314
13 *8:13 *90:9 0.00406809
14 *2:9 *8:13 0.000561493
*RES
1 io_in[16] *8:5 948.74 
2 *8:5 *8:7 4.5 
3 *8:7 *8:9 948.168 
4 *8:9 *8:11 4.5 
5 *8:11 *8:13 66.248 
6 *8:13 *419:io_in[16] 12.04 
*END

*D_NET *9 0.466936
*CONN
*P io_in[17] I
*I *419:io_in[17] I *D micro_irritating_maze
*CAP
1 io_in[17] 0.112266
2 *419:io_in[17] 0.000168817
3 *9:13 0.0018148
4 *9:11 0.00164598
5 *9:9 0.0941379
6 *9:7 0.0941379
7 *9:5 0.112266
8 *9:13 io_oeb[23] 0.0014869
9 *9:13 *14:21 0.00151974
10 *9:13 *16:13 0.0191211
11 *9:13 *40:13 0.000356934
12 *9:13 *45:9 0.0272979
13 *9:13 *49:9 0.000480384
14 *9:13 *56:10 0.000134686
15 *419:io_in[13] *9:13 0.00010057
*RES
1 io_in[17] *9:5 942.5 
2 *9:5 *9:7 4.5 
3 *9:7 *9:9 818.584 
4 *9:9 *9:11 4.5 
5 *9:11 *9:13 77.48 
6 *9:13 *419:io_in[17] 5.384 
*END

*D_NET *10 0.452905
*CONN
*P io_in[18] I
*I *419:io_in[18] I *D micro_irritating_maze
*CAP
1 io_in[18] 0.111943
2 *419:io_in[18] 0.00117181
3 *10:13 0.00211174
4 *10:11 0.000939933
5 *10:9 0.0812106
6 *10:7 0.0812106
7 *10:5 0.111943
8 *419:io_in[18] *47:15 0
9 *419:io_in[18] *86:7 0
10 *10:13 *11:13 0.0332781
11 *10:13 *15:21 0.00101857
12 *10:13 *53:9 0.0225104
13 *2:9 *10:13 0.00225615
14 *4:9 *10:13 0.000344327
15 *8:13 *10:13 0.00296624
*RES
1 io_in[18] *10:5 939.38 
2 *10:5 *10:7 4.5 
3 *10:7 *10:9 701.896 
4 *10:9 *10:11 4.5 
5 *10:11 *10:13 85.592 
6 *10:13 *419:io_in[18] 11.624 
*END

*D_NET *11 0.409581
*CONN
*P io_in[19] I
*I *419:io_in[19] I *D micro_irritating_maze
*CAP
1 io_in[19] 0.11158
2 *419:io_in[19] 0.00118631
3 *11:13 0.00725069
4 *11:11 0.00606438
5 *11:9 0.0671694
6 *11:7 0.0671694
7 *11:5 0.11158
8 *419:io_in[19] *48:7 0
9 *419:io_in[19] *87:7 0
10 *11:13 *53:9 0.000796803
11 *11:13 *97:9 0.000946128
12 *4:9 *11:13 0.00256055
13 *10:13 *11:13 0.0332781
*RES
1 io_in[19] *11:5 936.26 
2 *11:5 *11:7 4.5 
3 *11:7 *11:9 578.76 
4 *11:9 *11:11 4.5 
5 *11:11 *11:13 93.704 
6 *11:13 *419:io_in[19] 11.416 
*END

*D_NET *12 0.244991
*CONN
*P io_in[1] I
*I *419:io_in[1] I *D micro_irritating_maze
*CAP
1 io_in[1] 0.00452319
2 *419:io_in[1] 0.00215181
3 *12:13 0.102995
4 *12:11 0.105366
5 *419:io_in[1] *419:io_in[2] 0.00567229
6 *419:io_in[1] *50:15 0.000796329
7 *419:io_in[1] *77:11 0.0118213
8 *419:io_in[1] *331:17 0.000266907
9 *12:13 *419:io_in[3] 6.43169e-05
10 *12:13 *77:13 0
11 *12:13 *257:15 0.00924477
12 *12:13 *330:17 0.00157963
13 *1:13 *12:13 0
14 *1:19 *12:13 0.00050918
*RES
1 io_in[1] *12:11 47.844 
2 *12:11 *12:13 860.392 
3 *12:13 *419:io_in[1] 46.596 
*END

*D_NET *13 0.38335
*CONN
*P io_in[20] I
*I *419:io_in[20] I *D micro_irritating_maze
*CAP
1 io_in[20] 0.00268329
2 *419:io_in[20] 0.00300138
3 *13:13 0.117909
4 *13:11 0.114908
5 *13:9 0.0536428
6 *13:7 0.0563261
7 *419:io_in[20] *89:7 0
8 *13:13 *51:9 0.0348803
*RES
1 io_in[20] *13:7 26.6 
2 *13:7 *13:9 468.312 
3 *13:9 *13:11 4.5 
4 *13:11 *13:13 1012.86 
5 *13:13 *419:io_in[20] 23.896 
*END

*D_NET *14 0.485854
*CONN
*P io_in[21] I
*I *419:io_in[21] I *D micro_irritating_maze
*CAP
1 io_in[21] 0.00141595
2 *419:io_in[21] 0.000125633
3 *14:21 0.00322919
4 *14:19 0.00310355
5 *14:17 0.0172551
6 *14:15 0.0172551
7 *14:13 0.108541
8 *14:11 0.109957
9 *419:io_in[21] *51:7 0
10 *419:io_in[21] *90:7 0
11 *14:17 *53:13 0.00730528
12 *14:17 *90:13 0.137813
13 *14:17 *113:15 0.00106481
14 *14:17 *116:9 0.00678833
15 *14:17 *118:9 0.00502015
16 *14:17 *120:9 0.00391052
17 *14:17 *122:9 0.000105843
18 *14:17 *144:9 0.00777842
19 *14:17 *151:17 0.0129557
20 *14:17 *170:9 0.00870511
21 *14:17 *232:24 0.0060229
22 *14:21 *16:13 0.000764359
23 *14:21 *45:9 0.00121863
24 *14:21 *56:10 0.0080314
25 *14:21 *96:9 0.00266541
26 *14:21 *100:17 0.000258852
27 *419:io_in[13] *14:21 0.0128283
28 *7:9 *14:11 0.000215216
29 *9:13 *14:21 0.00151974
*RES
1 io_in[21] *14:11 21.22 
2 *14:11 *14:13 957.264 
3 *14:13 *14:15 4.5 
4 *14:15 *14:17 139.23 
5 *14:17 *14:19 4.5 
6 *14:19 *14:21 72.5437 
7 *14:21 *419:io_in[21] 5.384 
*END

*D_NET *15 0.40471
*CONN
*P io_in[22] I
*I *419:io_in[22] I *D micro_irritating_maze
*CAP
1 io_in[22] 0.00133528
2 *419:io_in[22] 0.00115317
3 *15:21 0.00329305
4 *15:19 0.00213987
5 *15:17 0.0100111
6 *15:15 0.0100111
7 *15:13 0.106563
8 *15:11 0.107898
9 *419:io_in[22] *52:7 0
10 *419:io_in[22] *91:7 0
11 *15:13 *323:13 0.00290783
12 *15:17 *48:13 0
13 *15:17 *87:13 0.101729
14 *15:17 *123:9 0.000618871
15 *15:17 *150:17 0.000312022
16 *15:17 *156:17 0.00543737
17 *15:21 *25:9 0.000693217
18 *15:21 *53:9 0.00361478
19 *15:21 *63:9 0.000106503
20 *15:21 *90:9 0.0297675
21 *15:21 *97:9 0.00417196
22 *2:9 *15:21 0.0097164
23 *4:9 *15:21 0.00170497
24 *7:9 *15:11 6.67191e-05
25 *8:13 *15:21 0.000440397
26 *10:13 *15:21 0.00101857
*RES
1 io_in[22] *15:11 19.972 
2 *15:11 *15:13 950.579 
3 *15:13 *15:15 4.5 
4 *15:15 *15:17 89.8736 
5 *15:17 *15:19 4.5 
6 *15:19 *15:21 84.2214 
7 *15:21 *419:io_in[22] 11.832 
*END

*D_NET *16 0.299548
*CONN
*P io_in[23] I
*I *419:io_in[23] I *D micro_irritating_maze
*CAP
1 io_in[23] 0.115681
2 *419:io_in[23] 0.000159084
3 *16:13 0.00452254
4 *16:11 0.00436346
5 *16:9 0.00709411
6 *16:7 0.00709411
7 *16:5 0.115681
8 *419:io_in[23] *53:7 0
9 *419:io_in[23] *92:7 0
10 *16:9 *81:17 0.00043752
11 *16:9 *92:13 0.0158668
12 *16:9 *97:15 0.00149534
13 *16:13 io_oeb[23] 0.00564157
14 *16:13 *49:9 0.000639937
15 *419:io_in[13] *16:13 0.000984807
16 *9:13 *16:13 0.0191211
17 *14:21 *16:13 0.000764359
*RES
1 io_in[23] *16:5 970.58 
2 *16:5 *16:7 4.5 
3 *16:7 *16:9 81.224 
4 *16:9 *16:11 4.5 
5 *16:11 *16:13 79.352 
6 *16:13 *419:io_in[23] 5.592 
*END

*D_NET *17 0.504225
*CONN
*P io_in[24] I
*I *419:io_in[24] I *D micro_irritating_maze
*CAP
1 io_in[24] 0.0030874
2 *419:io_in[24] 0.00239814
3 *17:13 0.0666576
4 *17:11 0.0673468
5 *419:io_in[24] *54:7 0
6 *17:13 *52:9 0.00832643
7 *17:13 *58:9 0
8 *17:13 *60:9 0.000535668
9 *17:13 *91:9 0.00728425
10 *6:17 *17:13 0.348588
*RES
1 io_in[24] *17:11 31.1426 
2 *17:11 *17:13 1018.51 
3 *17:13 *419:io_in[24] 20.776 
*END

*D_NET *18 0.478902
*CONN
*P io_in[25] I
*I *419:io_in[25] I *D micro_irritating_maze
*CAP
1 io_in[25] 0.000151775
2 *419:io_in[25] 0.00313977
3 *18:13 0.072204
4 *18:11 0.069216
5 *419:io_in[25] *55:7 0
6 *419:io_in[25] *94:7 0
7 *18:13 *57:9 0.33419
*RES
1 io_in[25] *18:11 6.008 
2 *18:11 *18:13 965.224 
3 *18:13 *419:io_in[25] 26.808 
*END

*D_NET *19 0.398056
*CONN
*P io_in[26] I
*I *419:io_in[26] I *D micro_irritating_maze
*CAP
1 io_in[26] 0.000472987
2 *419:io_in[26] 0.0028489
3 *19:9 0.0635546
4 *19:7 0.0611787
5 *419:io_in[26] *95:7 0
6 *19:9 *22:9 0.262629
7 *6:17 *19:9 0.00737195
*RES
1 io_in[26] *19:7 8.504 
2 *19:7 *19:9 891.8 
3 *19:9 *419:io_in[26] 22.232 
*END

*D_NET *20 0.337178
*CONN
*P io_in[27] I
*I *419:io_in[27] I *D micro_irritating_maze
*CAP
1 io_in[27] 0.00205021
2 *419:io_in[27] 0.00118414
3 *20:9 0.0625227
4 *20:7 0.0633888
5 *419:io_in[27] *57:7 0
6 *419:io_in[27] *96:7 0
7 *20:9 *25:9 0.201485
8 *20:9 *48:9 0
9 *20:9 *87:9 0
10 *2:9 *20:9 0.00654679
11 *4:9 *20:9 0
*RES
1 io_in[27] *20:7 17.864 
2 *20:7 *20:9 818.168 
3 *20:9 *419:io_in[27] 12.872 
*END

*D_NET *21 0.549594
*CONN
*P io_in[28] I
*I *419:io_in[28] I *D micro_irritating_maze
*CAP
1 io_in[28] 0.000114702
2 *419:io_in[28] 0.00291168
3 *21:13 0.0142454
4 *21:11 0.0114484
5 *419:io_in[28] *58:7 0
6 *419:io_in[28] *97:7 0
7 *21:13 *24:11 0.00420436
8 *21:13 *24:13 0.221141
9 *21:13 *57:9 0.295528
*RES
1 io_in[28] *21:11 5.592 
2 *21:11 *21:13 744.328 
3 *21:13 *419:io_in[28] 26.392 
*END

*D_NET *22 0.527881
*CONN
*P io_in[29] I
*I *419:io_in[29] I *D micro_irritating_maze
*CAP
1 io_in[29] 0.00051711
2 *419:io_in[29] 0.00235092
3 *22:9 0.00648087
4 *22:7 0.00464706
5 *419:io_in[29] *59:7 0
6 *419:io_in[29] *98:7 0
7 *22:9 *60:9 0.247633
8 *6:17 *22:9 0.00362239
9 *19:9 *22:9 0.262629
*RES
1 io_in[29] *22:7 8.712 
2 *22:7 *22:9 670.904 
3 *22:9 *419:io_in[29] 22.024 
*END

*D_NET *23 0.249793
*CONN
*P io_in[2] I
*I *419:io_in[2] I *D micro_irritating_maze
*CAP
1 io_in[2] 0.0192378
2 *419:io_in[2] 0.00159921
3 *23:13 0.0841165
4 *23:11 0.0825173
5 *23:9 0.0117655
6 *23:7 0.0117655
7 *23:5 0.0192378
8 *419:io_in[2] *39:11 0.000117617
9 *419:io_in[2] *50:15 0.00516164
10 *419:io_in[2] *77:11 0.000264424
11 *419:io_in[2] *251:15 0.000278845
12 *23:9 *225:26 0
13 *23:13 io_oeb[0] 0
14 *23:13 *77:13 0
15 *23:13 *185:14 0.00247945
16 *23:13 *276:17 0.00259319
17 *23:13 *334:17 0.00298624
18 *419:io_in[1] *419:io_in[2] 0.00567229
*RES
1 io_in[2] *23:5 168.74 
2 *23:5 *23:7 4.5 
3 *23:7 *23:9 99.736 
4 *23:9 *23:11 4.5 
5 *23:11 *23:13 701.064 
6 *23:13 *419:io_in[2] 33.7 
*END

*D_NET *24 0.3011
*CONN
*P io_in[30] I
*I *419:io_in[30] I *D micro_irritating_maze
*CAP
1 io_in[30] 0.00249775
2 *419:io_in[30] 0.00276003
3 *24:13 0.0353793
4 *24:11 0.035117
5 *419:io_in[30] *60:7 0
6 *419:io_in[30] *100:7 0
7 *21:13 *24:11 0.00420436
8 *21:13 *24:13 0.221141
*RES
1 io_in[30] *24:11 40.848 
2 *24:11 *24:13 562.016 
3 *24:13 *419:io_in[30] 26.184 
*END

*D_NET *25 0.289131
*CONN
*P io_in[31] I
*I *419:io_in[31] I *D micro_irritating_maze
*CAP
1 io_in[31] 0.00186778
2 *419:io_in[31] 0.00106746
3 *25:9 0.0144553
4 *25:7 0.0152556
5 *419:io_in[31] *62:7 0
6 *419:io_in[31] *101:7 0
7 *25:9 *63:9 0.0181447
8 *25:9 *90:9 0.00881018
9 *2:9 *25:9 0.0273519
10 *15:21 *25:9 0.000693217
11 *20:9 *25:9 0.201485
*RES
1 io_in[31] *25:7 18.072 
2 *25:7 *25:9 523.64 
3 *25:9 *419:io_in[31] 12.664 
*END

*D_NET *32 0.267667
*CONN
*P io_in[3] I
*I *419:io_in[3] I *D micro_irritating_maze
*CAP
1 io_in[3] 0.0991285
2 *419:io_in[3] 0.00113248
3 *32:9 0.0324605
4 *32:7 0.0313281
5 *32:5 0.0991285
6 *419:io_in[3] *77:13 0.000508302
7 *419:io_in[3] *300:17 0.000285705
8 *32:9 *50:17 0
9 *32:9 *357:5 0.00363071
10 *12:13 *419:io_in[3] 6.43169e-05
*RES
1 io_in[3] *32:5 866.58 
2 *32:5 *32:7 4.5 
3 *32:7 *32:9 175.24 
4 *32:9 *419:io_in[3] 14.12 
*END

*D_NET *33 0.260681
*CONN
*P io_in[4] I
*I *419:io_in[4] I *D micro_irritating_maze
*CAP
1 io_in[4] 0.00154954
2 *419:io_in[4] 0.00287627
3 *33:17 0.0317804
4 *33:15 0.0289042
5 *33:13 0.0967942
6 *33:11 0.0983437
7 *33:17 *325:13 0
8 *33:17 *358:13 0
9 *5:9 *33:11 0.000432796
*RES
1 io_in[4] *33:11 22.884 
2 *33:11 *33:13 848.12 
3 *33:13 *33:15 4.5 
4 *33:15 *33:17 229.112 
5 *33:17 *419:io_in[4] 22.44 
*END

*D_NET *34 0.271953
*CONN
*P io_in[5] I
*I *419:io_in[5] I *D micro_irritating_maze
*CAP
1 io_in[5] 0.0976486
2 *419:io_in[5] 0.00280009
3 *34:9 0.0380118
4 *34:7 0.0352117
5 *34:5 0.0976486
6 *419:io_in[5] *213:17 0.000631852
7 *34:9 *358:13 0
*RES
1 io_in[5] *34:5 855.14 
2 *34:5 *34:7 4.5 
3 *34:7 *34:9 290.056 
4 *34:9 *419:io_in[5] 25.56 
*END

*D_NET *35 0.284854
*CONN
*P io_in[6] I
*I *419:io_in[6] I *D micro_irritating_maze
*CAP
1 io_in[6] 0.00162967
2 *419:io_in[6] 0.00378796
3 *35:17 0.04452
4 *35:15 0.0407321
5 *35:13 0.0962775
6 *35:11 0.0979072
7 *5:9 *35:11 0
*RES
1 io_in[6] *35:11 21.428 
2 *35:11 *35:13 843.96 
3 *35:13 *35:15 4.5 
4 *35:15 *35:17 343.304 
5 *35:17 *419:io_in[6] 28.68 
*END

*D_NET *36 0.298973
*CONN
*P io_in[7] I
*I *419:io_in[7] I *D micro_irritating_maze
*CAP
1 io_in[7] 0.089419
2 *419:io_in[7] 0.0110295
3 *36:11 0.0110295
4 *36:9 0.0470833
5 *36:7 0.0470833
6 *36:5 0.089419
7 *419:io_in[7] *159:17 0.0039098
*RES
1 io_in[7] *36:5 783.38 
2 *36:5 *36:7 4.5 
3 *36:7 *36:9 404.872 
4 *36:9 *36:11 4.5 