*SPEF "ieee 1481-1999"
*DESIGN "user_project_wrapper"
*DATE "11:11:11 Fri 11 11, 1111"
*VENDOR "OpenRCX"
*PROGRAM "Parallel Extraction"
*VERSION "1.0"
*DESIGN_FLOW "NAME_SCOPE LOCAL" "PIN_CAP NONE"
*DIVIDER /
*DELIMITER :
*BUS_DELIMITER []
*T_UNIT 1 NS
*C_UNIT 1 PF
*R_UNIT 1 OHM
*L_UNIT 1 HENRY

*NAME_MAP
*1 io_in[0]
*2 io_in[10]
*3 io_in[11]
*4 io_in[12]
*5 io_in[13]
*6 io_in[14]
*7 io_in[15]
*8 io_in[16]
*9 io_in[17]
*10 io_in[18]
*11 io_in[19]
*12 io_in[1]
*13 io_in[20]
*14 io_in[21]
*15 io_in[22]
*16 io_in[23]
*17 io_in[24]
*18 io_in[25]
*19 io_in[26]
*20 io_in[27]
*21 io_in[28]
*22 io_in[29]
*23 io_in[2]
*24 io_in[30]
*25 io_in[31]
*26 io_in[32]
*27 io_in[33]
*28 io_in[34]
*29 io_in[35]
*30 io_in[36]
*31 io_in[37]
*32 io_in[3]
*33 io_in[4]
*34 io_in[5]
*35 io_in[6]
*36 io_in[7]
*37 io_in[8]
*38 io_in[9]
*39 io_oeb[0]
*40 io_oeb[10]
*41 io_oeb[11]
*42 io_oeb[12]
*43 io_oeb[13]
*44 io_oeb[14]
*45 io_oeb[15]
*46 io_oeb[16]
*47 io_oeb[17]
*48 io_oeb[18]
*49 io_oeb[19]
*50 io_oeb[1]
*51 io_oeb[20]
*52 io_oeb[21]
*53 io_oeb[22]
*54 io_oeb[23]
*55 io_oeb[24]
*56 io_oeb[25]
*57 io_oeb[26]
*58 io_oeb[27]
*59 io_oeb[28]
*60 io_oeb[29]
*61 io_oeb[2]
*62 io_oeb[30]
*63 io_oeb[31]
*64 io_oeb[32]
*65 io_oeb[33]
*66 io_oeb[34]
*67 io_oeb[35]
*68 io_oeb[36]
*69 io_oeb[37]
*70 io_oeb[3]
*71 io_oeb[4]
*72 io_oeb[5]
*73 io_oeb[6]
*74 io_oeb[7]
*75 io_oeb[8]
*76 io_oeb[9]
*77 io_out[0]
*78 io_out[10]
*79 io_out[11]
*80 io_out[12]
*81 io_out[13]
*82 io_out[14]
*83 io_out[15]
*84 io_out[16]
*85 io_out[17]
*86 io_out[18]
*87 io_out[19]
*88 io_out[1]
*89 io_out[20]
*90 io_out[21]
*91 io_out[22]
*92 io_out[23]
*93 io_out[24]
*94 io_out[25]
*95 io_out[26]
*96 io_out[27]
*97 io_out[28]
*98 io_out[29]
*99 io_out[2]
*100 io_out[30]
*101 io_out[31]
*102 io_out[32]
*103 io_out[33]
*104 io_out[34]
*105 io_out[35]
*106 io_out[36]
*107 io_out[37]
*108 io_out[3]
*109 io_out[4]
*110 io_out[5]
*111 io_out[6]
*112 io_out[7]
*113 io_out[8]
*114 io_out[9]
*115 la_data_in[0]
*116 la_data_in[10]
*117 la_data_in[11]
*118 la_data_in[12]
*119 la_data_in[13]
*120 la_data_in[14]
*121 la_data_in[15]
*122 la_data_in[16]
*123 la_data_in[17]
*124 la_data_in[18]
*125 la_data_in[19]
*126 la_data_in[1]
*127 la_data_in[20]
*128 la_data_in[21]
*129 la_data_in[22]
*130 la_data_in[23]
*131 la_data_in[24]
*132 la_data_in[25]
*133 la_data_in[26]
*134 la_data_in[27]
*135 la_data_in[28]
*136 la_data_in[29]
*137 la_data_in[2]
*138 la_data_in[30]
*139 la_data_in[31]
*140 la_data_in[32]
*141 la_data_in[33]
*142 la_data_in[34]
*143 la_data_in[35]
*144 la_data_in[36]
*145 la_data_in[37]
*146 la_data_in[38]
*147 la_data_in[39]
*148 la_data_in[3]
*149 la_data_in[40]
*150 la_data_in[41]
*151 la_data_in[42]
*152 la_data_in[43]
*153 la_data_in[44]
*154 la_data_in[45]
*155 la_data_in[46]
*156 la_data_in[47]
*157 la_data_in[48]
*158 la_data_in[49]
*159 la_data_in[4]
*160 la_data_in[50]
*161 la_data_in[51]
*162 la_data_in[52]
*163 la_data_in[53]
*164 la_data_in[54]
*165 la_data_in[55]
*166 la_data_in[56]
*167 la_data_in[57]
*168 la_data_in[58]
*169 la_data_in[59]
*170 la_data_in[5]
*171 la_data_in[60]
*172 la_data_in[61]
*173 la_data_in[62]
*174 la_data_in[63]
*175 la_data_in[6]
*176 la_data_in[7]
*177 la_data_in[8]
*178 la_data_in[9]
*179 la_data_out[0]
*180 la_data_out[10]
*181 la_data_out[11]
*182 la_data_out[12]
*183 la_data_out[13]
*184 la_data_out[14]
*185 la_data_out[15]
*186 la_data_out[16]
*187 la_data_out[17]
*188 la_data_out[18]
*189 la_data_out[19]
*190 la_data_out[1]
*191 la_data_out[20]
*192 la_data_out[21]
*193 la_data_out[22]
*194 la_data_out[23]
*195 la_data_out[24]
*196 la_data_out[25]
*197 la_data_out[26]
*198 la_data_out[27]
*199 la_data_out[28]
*200 la_data_out[29]
*201 la_data_out[2]
*202 la_data_out[30]
*203 la_data_out[31]
*204 la_data_out[32]
*205 la_data_out[33]
*206 la_data_out[34]
*207 la_data_out[35]
*208 la_data_out[36]
*209 la_data_out[37]
*210 la_data_out[38]
*211 la_data_out[39]
*212 la_data_out[3]
*213 la_data_out[40]
*214 la_data_out[41]
*215 la_data_out[42]
*216 la_data_out[43]
*217 la_data_out[44]
*218 la_data_out[45]
*219 la_data_out[46]
*220 la_data_out[47]
*221 la_data_out[48]
*222 la_data_out[49]
*223 la_data_out[4]
*224 la_data_out[50]
*225 la_data_out[51]
*226 la_data_out[52]
*227 la_data_out[53]
*228 la_data_out[54]
*229 la_data_out[55]
*230 la_data_out[56]
*231 la_data_out[57]
*232 la_data_out[58]
*233 la_data_out[59]
*234 la_data_out[5]
*235 la_data_out[60]
*236 la_data_out[61]
*237 la_data_out[62]
*238 la_data_out[63]
*239 la_data_out[6]
*240 la_data_out[7]
*241 la_data_out[8]
*242 la_data_out[9]
*243 la_oenb[0]
*244 la_oenb[10]
*245 la_oenb[11]
*246 la_oenb[12]
*247 la_oenb[13]
*248 la_oenb[14]
*249 la_oenb[15]
*250 la_oenb[16]
*251 la_oenb[17]
*252 la_oenb[18]
*253 la_oenb[19]
*254 la_oenb[1]
*255 la_oenb[20]
*256 la_oenb[21]
*257 la_oenb[22]
*258 la_oenb[23]
*259 la_oenb[24]
*260 la_oenb[25]
*261 la_oenb[26]
*262 la_oenb[27]
*263 la_oenb[28]
*264 la_oenb[29]
*265 la_oenb[2]
*266 la_oenb[30]
*267 la_oenb[31]
*268 la_oenb[32]
*269 la_oenb[33]
*270 la_oenb[34]
*271 la_oenb[35]
*272 la_oenb[36]
*273 la_oenb[37]
*274 la_oenb[38]
*275 la_oenb[39]
*276 la_oenb[3]
*277 la_oenb[40]
*278 la_oenb[41]
*279 la_oenb[42]
*280 la_oenb[43]
*281 la_oenb[44]
*282 la_oenb[45]
*283 la_oenb[46]
*284 la_oenb[47]
*285 la_oenb[48]
*286 la_oenb[49]
*287 la_oenb[4]
*288 la_oenb[50]
*289 la_oenb[51]
*290 la_oenb[52]
*291 la_oenb[53]
*292 la_oenb[54]
*293 la_oenb[55]
*294 la_oenb[56]
*295 la_oenb[57]
*296 la_oenb[58]
*297 la_oenb[59]
*298 la_oenb[5]
*299 la_oenb[60]
*300 la_oenb[61]
*301 la_oenb[62]
*302 la_oenb[63]
*303 la_oenb[6]
*304 la_oenb[7]
*305 la_oenb[8]
*306 la_oenb[9]
*307 user_clock2
*308 user_irq[0]
*309 user_irq[1]
*310 user_irq[2]
*313 wb_clk_i
*314 wb_rst_i
*315 wbs_ack_o
*316 wbs_adr_i[0]
*317 wbs_adr_i[10]
*318 wbs_adr_i[11]
*319 wbs_adr_i[12]
*320 wbs_adr_i[13]
*321 wbs_adr_i[14]
*322 wbs_adr_i[15]
*323 wbs_adr_i[16]
*324 wbs_adr_i[17]
*325 wbs_adr_i[18]
*326 wbs_adr_i[19]
*327 wbs_adr_i[1]
*328 wbs_adr_i[20]
*329 wbs_adr_i[21]
*330 wbs_adr_i[22]
*331 wbs_adr_i[23]
*332 wbs_adr_i[24]
*333 wbs_adr_i[25]
*334 wbs_adr_i[26]
*335 wbs_adr_i[27]
*336 wbs_adr_i[28]
*337 wbs_adr_i[29]
*338 wbs_adr_i[2]
*339 wbs_adr_i[30]
*340 wbs_adr_i[31]
*341 wbs_adr_i[3]
*342 wbs_adr_i[4]
*343 wbs_adr_i[5]
*344 wbs_adr_i[6]
*345 wbs_adr_i[7]
*346 wbs_adr_i[8]
*347 wbs_adr_i[9]
*348 wbs_cyc_i
*349 wbs_dat_i[0]
*350 wbs_dat_i[10]
*351 wbs_dat_i[11]
*352 wbs_dat_i[12]
*353 wbs_dat_i[13]
*354 wbs_dat_i[14]
*355 wbs_dat_i[15]
*356 wbs_dat_i[16]
*357 wbs_dat_i[17]
*358 wbs_dat_i[18]
*359 wbs_dat_i[19]
*360 wbs_dat_i[1]
*361 wbs_dat_i[20]
*362 wbs_dat_i[21]
*363 wbs_dat_i[22]
*364 wbs_dat_i[23]
*365 wbs_dat_i[24]
*366 wbs_dat_i[25]
*367 wbs_dat_i[26]
*368 wbs_dat_i[27]
*369 wbs_dat_i[28]
*370 wbs_dat_i[29]
*371 wbs_dat_i[2]
*372 wbs_dat_i[30]
*373 wbs_dat_i[31]
*374 wbs_dat_i[3]
*375 wbs_dat_i[4]
*376 wbs_dat_i[5]
*377 wbs_dat_i[6]
*378 wbs_dat_i[7]
*379 wbs_dat_i[8]
*380 wbs_dat_i[9]
*381 wbs_dat_o[0]
*382 wbs_dat_o[10]
*383 wbs_dat_o[11]
*384 wbs_dat_o[12]
*385 wbs_dat_o[13]
*386 wbs_dat_o[14]
*387 wbs_dat_o[15]
*388 wbs_dat_o[16]
*389 wbs_dat_o[17]
*390 wbs_dat_o[18]
*391 wbs_dat_o[19]
*392 wbs_dat_o[1]
*393 wbs_dat_o[20]
*394 wbs_dat_o[21]
*395 wbs_dat_o[22]
*396 wbs_dat_o[23]
*397 wbs_dat_o[24]
*398 wbs_dat_o[25]
*399 wbs_dat_o[26]
*400 wbs_dat_o[27]
*401 wbs_dat_o[28]
*402 wbs_dat_o[29]
*403 wbs_dat_o[2]
*404 wbs_dat_o[30]
*405 wbs_dat_o[31]
*406 wbs_dat_o[3]
*407 wbs_dat_o[4]
*408 wbs_dat_o[5]
*409 wbs_dat_o[6]
*410 wbs_dat_o[7]
*411 wbs_dat_o[8]
*412 wbs_dat_o[9]
*413 wbs_sel_i[0]
*414 wbs_sel_i[1]
*415 wbs_sel_i[2]
*416 wbs_sel_i[3]
*417 wbs_stb_i
*418 wbs_we_i
*419 micro_irritating_maze

*PORTS
io_in[0] I
io_in[10] I
io_in[11] I
io_in[12] I
io_in[13] I
io_in[14] I
io_in[15] I
io_in[16] I
io_in[17] I
io_in[18] I
io_in[19] I
io_in[1] I
io_in[20] I
io_in[21] I
io_in[22] I
io_in[23] I
io_in[24] I
io_in[25] I
io_in[26] I
io_in[27] I
io_in[28] I
io_in[29] I
io_in[2] I
io_in[30] I
io_in[31] I
io_in[32] I
io_in[33] I
io_in[34] I
io_in[35] I
io_in[36] I
io_in[37] I
io_in[3] I
io_in[4] I
io_in[5] I
io_in[6] I
io_in[7] I
io_in[8] I
io_in[9] I
io_oeb[0] O
io_oeb[10] O
io_oeb[11] O
io_oeb[12] O
io_oeb[13] O
io_oeb[14] O
io_oeb[15] O
io_oeb[16] O
io_oeb[17] O
io_oeb[18] O
io_oeb[19] O
io_oeb[1] O
io_oeb[20] O
io_oeb[21] O
io_oeb[22] O
io_oeb[23] O
io_oeb[24] O
io_oeb[25] O
io_oeb[26] O
io_oeb[27] O
io_oeb[28] O
io_oeb[29] O
io_oeb[2] O
io_oeb[30] O
io_oeb[31] O
io_oeb[32] O
io_oeb[33] O
io_oeb[34] O
io_oeb[35] O
io_oeb[36] O
io_oeb[37] O
io_oeb[3] O
io_oeb[4] O
io_oeb[5] O
io_oeb[6] O
io_oeb[7] O
io_oeb[8] O
io_oeb[9] O
io_out[0] O
io_out[10] O
io_out[11] O
io_out[12] O
io_out[13] O
io_out[14] O
io_out[15] O
io_out[16] O
io_out[17] O
io_out[18] O
io_out[19] O
io_out[1] O
io_out[20] O
io_out[21] O
io_out[22] O
io_out[23] O
io_out[24] O
io_out[25] O
io_out[26] O
io_out[27] O
io_out[28] O
io_out[29] O
io_out[2] O
io_out[30] O
io_out[31] O
io_out[32] O
io_out[33] O
io_out[34] O
io_out[35] O
io_out[36] O
io_out[37] O
io_out[3] O
io_out[4] O
io_out[5] O
io_out[6] O
io_out[7] O
io_out[8] O
io_out[9] O
la_data_in[0] I
la_data_in[10] I
la_data_in[11] I
la_data_in[12] I
la_data_in[13] I
la_data_in[14] I
la_data_in[15] I
la_data_in[16] I
la_data_in[17] I
la_data_in[18] I
la_data_in[19] I
la_data_in[1] I
la_data_in[20] I
la_data_in[21] I
la_data_in[22] I
la_data_in[23] I
la_data_in[24] I
la_data_in[25] I
la_data_in[26] I
la_data_in[27] I
la_data_in[28] I
la_data_in[29] I
la_data_in[2] I
la_data_in[30] I
la_data_in[31] I
la_data_in[32] I
la_data_in[33] I
la_data_in[34] I
la_data_in[35] I
la_data_in[36] I
la_data_in[37] I
la_data_in[38] I
la_data_in[39] I
la_data_in[3] I
la_data_in[40] I
la_data_in[41] I
la_data_in[42] I
la_data_in[43] I
la_data_in[44] I
la_data_in[45] I
la_data_in[46] I
la_data_in[47] I
la_data_in[48] I
la_data_in[49] I
la_data_in[4] I
la_data_in[50] I
la_data_in[51] I
la_data_in[52] I
la_data_in[53] I
la_data_in[54] I
la_data_in[55] I
la_data_in[56] I
la_data_in[57] I
la_data_in[58] I
la_data_in[59] I
la_data_in[5] I
la_data_in[60] I
la_data_in[61] I
la_data_in[62] I
la_data_in[63] I
la_data_in[6] I
la_data_in[7] I
la_data_in[8] I
la_data_in[9] I
la_data_out[0] O
la_data_out[10] O
la_data_out[11] O
la_data_out[12] O
la_data_out[13] O
la_data_out[14] O
la_data_out[15] O
la_data_out[16] O
la_data_out[17] O
la_data_out[18] O
la_data_out[19] O
la_data_out[1] O
la_data_out[20] O
la_data_out[21] O
la_data_out[22] O
la_data_out[23] O
la_data_out[24] O
la_data_out[25] O
la_data_out[26] O
la_data_out[27] O
la_data_out[28] O
la_data_out[29] O
la_data_out[2] O
la_data_out[30] O
la_data_out[31] O
la_data_out[32] O
la_data_out[33] O
la_data_out[34] O
la_data_out[35] O
la_data_out[36] O
la_data_out[37] O
la_data_out[38] O
la_data_out[39] O
la_data_out[3] O
la_data_out[40] O
la_data_out[41] O
la_data_out[42] O
la_data_out[43] O
la_data_out[44] O
la_data_out[45] O
la_data_out[46] O
la_data_out[47] O
la_data_out[48] O
la_data_out[49] O
la_data_out[4] O
la_data_out[50] O
la_data_out[51] O
la_data_out[52] O
la_data_out[53] O
la_data_out[54] O
la_data_out[55] O
la_data_out[56] O
la_data_out[57] O
la_data_out[58] O
la_data_out[59] O
la_data_out[5] O
la_data_out[60] O
la_data_out[61] O
la_data_out[62] O
la_data_out[63] O
la_data_out[6] O
la_data_out[7] O
la_data_out[8] O
la_data_out[9] O
la_oenb[0] I
la_oenb[10] I
la_oenb[11] I
la_oenb[12] I
la_oenb[13] I
la_oenb[14] I
la_oenb[15] I
la_oenb[16] I
la_oenb[17] I
la_oenb[18] I
la_oenb[19] I
la_oenb[1] I
la_oenb[20] I
la_oenb[21] I
la_oenb[22] I
la_oenb[23] I
la_oenb[24] I
la_oenb[25] I
la_oenb[26] I
la_oenb[27] I
la_oenb[28] I
la_oenb[29] I
la_oenb[2] I
la_oenb[30] I
la_oenb[31] I
la_oenb[32] I
la_oenb[33] I
la_oenb[34] I
la_oenb[35] I
la_oenb[36] I
la_oenb[37] I
la_oenb[38] I
la_oenb[39] I
la_oenb[3] I
la_oenb[40] I
la_oenb[41] I
la_oenb[42] I
la_oenb[43] I
la_oenb[44] I
la_oenb[45] I
la_oenb[46] I
la_oenb[47] I
la_oenb[48] I
la_oenb[49] I
la_oenb[4] I
la_oenb[50] I
la_oenb[51] I
la_oenb[52] I
la_oenb[53] I
la_oenb[54] I
la_oenb[55] I
la_oenb[56] I
la_oenb[57] I
la_oenb[58] I
la_oenb[59] I
la_oenb[5] I
la_oenb[60] I
la_oenb[61] I
la_oenb[62] I
la_oenb[63] I
la_oenb[6] I
la_oenb[7] I
la_oenb[8] I
la_oenb[9] I
user_clock2 I
user_irq[0] O
user_irq[1] O
user_irq[2] O
wb_clk_i I
wb_rst_i I
wbs_ack_o O
wbs_adr_i[0] I
wbs_adr_i[10] I
wbs_adr_i[11] I
wbs_adr_i[12] I
wbs_adr_i[13] I
wbs_adr_i[14] I
wbs_adr_i[15] I
wbs_adr_i[16] I
wbs_adr_i[17] I
wbs_adr_i[18] I
wbs_adr_i[19] I
wbs_adr_i[1] I
wbs_adr_i[20] I
wbs_adr_i[21] I
wbs_adr_i[22] I
wbs_adr_i[23] I
wbs_adr_i[24] I
wbs_adr_i[25] I
wbs_adr_i[26] I
wbs_adr_i[27] I
wbs_adr_i[28] I
wbs_adr_i[29] I
wbs_adr_i[2] I
wbs_adr_i[30] I
wbs_adr_i[31] I
wbs_adr_i[3] I
wbs_adr_i[4] I
wbs_adr_i[5] I
wbs_adr_i[6] I
wbs_adr_i[7] I
wbs_adr_i[8] I
wbs_adr_i[9] I
wbs_cyc_i I
wbs_dat_i[0] I
wbs_dat_i[10] I
wbs_dat_i[11] I
wbs_dat_i[12] I
wbs_dat_i[13] I
wbs_dat_i[14] I
wbs_dat_i[15] I
wbs_dat_i[16] I
wbs_dat_i[17] I
wbs_dat_i[18] I
wbs_dat_i[19] I
wbs_dat_i[1] I
wbs_dat_i[20] I
wbs_dat_i[21] I
wbs_dat_i[22] I
wbs_dat_i[23] I
wbs_dat_i[24] I
wbs_dat_i[25] I
wbs_dat_i[26] I
wbs_dat_i[27] I
wbs_dat_i[28] I
wbs_dat_i[29] I
wbs_dat_i[2] I
wbs_dat_i[30] I
wbs_dat_i[31] I
wbs_dat_i[3] I
wbs_dat_i[4] I
wbs_dat_i[5] I
wbs_dat_i[6] I
wbs_dat_i[7] I
wbs_dat_i[8] I
wbs_dat_i[9] I
wbs_dat_o[0] O
wbs_dat_o[10] O
wbs_dat_o[11] O
wbs_dat_o[12] O
wbs_dat_o[13] O
wbs_dat_o[14] O
wbs_dat_o[15] O
wbs_dat_o[16] O
wbs_dat_o[17] O
wbs_dat_o[18] O
wbs_dat_o[19] O
wbs_dat_o[1] O
wbs_dat_o[20] O
wbs_dat_o[21] O
wbs_dat_o[22] O
wbs_dat_o[23] O
wbs_dat_o[24] O
wbs_dat_o[25] O
wbs_dat_o[26] O
wbs_dat_o[27] O
wbs_dat_o[28] O
wbs_dat_o[29] O
wbs_dat_o[2] O
wbs_dat_o[30] O
wbs_dat_o[31] O
wbs_dat_o[3] O
wbs_dat_o[4] O
wbs_dat_o[5] O
wbs_dat_o[6] O
wbs_dat_o[7] O
wbs_dat_o[8] O
wbs_dat_o[9] O
wbs_sel_i[0] I
wbs_sel_i[1] I
wbs_sel_i[2] I
wbs_sel_i[3] I
wbs_stb_i I
wbs_we_i I

*D_NET *1 0.265741
*CONN
*P io_in[0] I
*I *419:io_in[0] I *D micro_irritating_maze
*CAP
1 io_in[0] 0.00394229
2 *419:io_in[0] 0.00274753
3 *1:19 0.00458984
4 *1:13 0.0869536
5 *1:11 0.0895187
6 *1:7 0.0083497
7 *419:io_in[0] *39:11 0.0101656
8 *419:io_in[0] *77:11 0.00065018
9 *419:io_in[0] *88:9 0.00707847
10 *419:io_in[0] *229:24 0.000571587
11 *419:io_in[0] *250:15 0.000155717
12 *419:io_in[0] *324:13 0
13 *419:io_in[0] *404:14 0
14 *1:11 la_data_out[63] 0
15 *1:11 *302:13 0
16 *1:13 *12:13 0
17 *1:13 *222:14 0.0481302
18 *1:19 *12:13 0.000477335
19 *1:19 *50:15 0.00145923
20 *1:19 *222:14 0.000951097
*RES
1 io_in[0] *1:7 32.05 
2 *1:7 *1:11 36.04 
3 *1:11 *1:13 594.016 
4 *1:13 *1:19 19.472 
5 *1:19 *419:io_in[0] 42.462 
*END

*D_NET *2 0.495236
*CONN
*P io_in[10] I
*I *419:io_in[10] I *D micro_irritating_maze
*CAP
1 io_in[10] 0.111798
2 *419:io_in[10] 0.0010217
3 *2:9 0.0182804
4 *2:7 0.0172587
5 *2:5 0.111798
6 *419:io_in[10] *41:19 6.89672e-05
7 *2:5 io_out[28] 0.00291258
8 *2:9 *4:9 0.191259
9 *2:9 *8:13 0.000454155
10 *2:9 *10:13 0.00166482
11 *2:9 *15:21 0.00738814
12 *2:9 *20:9 0.00606786
13 *2:9 *25:9 0.0252623
*RES
1 io_in[10] *2:5 797.278 
2 *2:5 *2:7 4.5 
3 *2:7 *2:9 459.116 
4 *2:9 *419:io_in[10] 9.706 
*END

*D_NET *3 0.397592
*CONN
*P io_in[11] I
*I *419:io_in[11] I *D micro_irritating_maze
*CAP
1 io_in[11] 0.0971191
2 *419:io_in[11] 0.000203937
3 *3:13 0.0253228
4 *3:9 0.0952145
5 *3:7 0.0700956
6 *3:5 0.0971191
7 *419:io_in[11] *93:12 7.31665e-05
8 *3:9 *150:21 0.00139845
9 *3:9 *274:25 0.00781634
10 *3:13 *79:12 0
11 *3:13 *177:29 0.00322894
*RES
1 io_in[11] *3:5 691.03 
2 *3:5 *3:7 4.5 
3 *3:7 *3:9 515.261 
4 *3:9 *3:13 46.6136 
5 *3:13 *419:io_in[11] 10.425 
*END

*D_NET *4 0.519974
*CONN
*P io_in[12] I
*I *419:io_in[12] I *D micro_irritating_maze
*CAP
1 io_in[12] 0.11225
2 *419:io_in[12] 0.000990181
3 *4:9 0.0452583
4 *4:7 0.0442681
5 *4:5 0.11225
6 *419:io_in[12] *41:19 0
7 *4:9 *10:13 0.000268769
8 *4:9 *11:13 0.00201104
9 *4:9 *15:21 0.00149525
10 *4:9 *20:9 0
11 *4:9 *38:17 0.00620461
12 *4:9 *97:9 0.00371711
13 *2:9 *4:9 0.191259
*RES
1 io_in[12] *4:5 797.126 
2 *4:5 *4:7 4.5 
3 *4:7 *4:9 574.028 
4 *4:9 *419:io_in[12] 9.554 
*END

*D_NET *5 0.636952
*CONN
*P io_in[13] I
*I *419:io_in[13] I *D micro_irritating_maze
*CAP
1 io_in[13] 0.00104681
2 *419:io_in[13] 0.000767488
3 *5:13 0.0574652
4 *5:11 0.0566978
5 *5:9 0.0831125
6 *5:7 0.0841593
7 *419:io_in[13] *14:21 0.00974923
8 *419:io_in[13] *16:13 0.00081029
9 *419:io_in[13] *40:11 0.00802363
10 *419:io_in[13] *81:15 0.000116642
11 *419:io_in[13] *96:9 0.000882862
12 *419:io_in[13] *100:17 0.000565607
13 *5:7 *6:13 0
14 *5:9 io_out[12] 0.000240432
15 *5:9 io_out[2] 0.000275743
16 *5:9 io_out[7] 0.000263171
17 *5:9 *33:11 0.000392809
18 *5:9 *35:11 0
19 *5:13 *87:13 0.196181
20 *5:13 *125:9 0.0158887
21 *5:13 *127:9 0.0173462
22 *5:13 *131:9 0.0132897
23 *5:13 *139:9 0.0145795
24 *5:13 *145:9 0.000263838
25 *5:13 *156:17 0
26 *5:13 *160:17 0.0621537
27 *5:13 *191:26 0.012679
*RES
1 io_in[13] *5:7 11.53 
2 *5:7 *5:9 603.334 
3 *5:9 *5:11 4.5 
4 *5:11 *5:13 329.05 
5 *5:13 *419:io_in[13] 38.0239 
*END

*D_NET *6 0.618289
*CONN
*P io_in[14] I
*I *419:io_in[14] I *D micro_irritating_maze
*CAP
1 io_in[14] 0.00119673
2 *419:io_in[14] 0.00225706
3 *6:17 0.024176
4 *6:15 0.0219189
5 *6:13 0.112252
6 *6:11 0.112252
7 *6:9 0.00733371
8 *6:7 0.00853044
9 *6:17 *17:13 0.265061
10 *6:17 *19:9 0.0068337
11 *6:17 *22:9 0.00334716
12 *6:17 *60:9 0.0387333
13 *6:17 *91:9 0.0143954
14 *5:7 *6:13 0
*RES
1 io_in[14] *6:7 11.226 
2 *6:7 *6:9 52.82 
3 *6:9 *6:11 4.5 
4 *6:11 *6:13 797.468 
5 *6:13 *6:15 4.5 
6 *6:15 *6:17 636.196 
7 *6:17 *419:io_in[14] 16.546 
*END

*D_NET *7 0.58537
*CONN
*P io_in[15] I
*I *419:io_in[15] I *D micro_irritating_maze
*CAP
1 io_in[15] 0.00102104
2 *419:io_in[15] 0.000490504
3 *7:13 0.105665
4 *7:11 0.105174
5 *7:9 0.0735626
6 *7:7 0.0745837
7 *7:9 io_oeb[18] 0.000174565
8 *7:9 io_out[19] 8.45687e-05
9 *7:9 io_out[21] 0.000152066
10 *7:9 *14:11 0.000197064
11 *7:9 *15:11 6.20697e-05
12 *7:9 *47:21 0.214035
13 *7:13 io_oeb[23] 0
14 *7:13 *419:io_in[8] 0.000247661
15 *7:13 *41:19 0.000287292
16 *7:13 *81:15 0.00880588
17 *7:13 *113:15 0.000139959
18 *7:13 *114:19 0.000687373
*RES
1 io_in[15] *7:7 11.53 
2 *7:7 *7:9 779.988 
3 *7:9 *7:11 4.5 
4 *7:11 *7:13 731.044 
5 *7:13 *419:io_in[15] 7.274 
*END

*D_NET *8 0.512279
*CONN
*P io_in[16] I
*I *419:io_in[16] I *D micro_irritating_maze
*CAP
1 io_in[16] 0.101489
2 *419:io_in[16] 0.00106576
3 *8:13 0.00481474
4 *8:11 0.00374898
5 *8:9 0.0767738
6 *8:7 0.0767738
7 *8:5 0.101489
8 *419:io_in[16] *45:7 0
9 *8:9 *89:13 0.125252
10 *8:13 *10:13 0.00260481
11 *8:13 *15:21 0.000343758
12 *8:13 *53:9 0.0141209
13 *8:13 *90:9 0.00334719
14 *2:9 *8:13 0.000454155
*RES
1 io_in[16] *8:5 693.31 
2 *8:5 *8:7 4.5 
3 *8:7 *8:9 692.892 
4 *8:9 *8:11 4.5 
5 *8:11 *8:13 48.412 
6 *8:13 *419:io_in[16] 10.01 
*END

*D_NET *9 0.412061
*CONN
*P io_in[17] I
*I *419:io_in[17] I *D micro_irritating_maze
*CAP
1 io_in[17] 0.100833
2 *419:io_in[17] 0.000134816
3 *9:13 0.00144449
4 *9:11 0.00130967
5 *9:9 0.0845048
6 *9:7 0.0845048
7 *9:5 0.100833
8 *9:13 io_oeb[23] 0.00139954
9 *9:13 *14:21 0.00125043
10 *9:13 *16:13 0.0144887
11 *9:13 *40:13 0.000121014
12 *9:13 *45:9 0.020681
13 *9:13 *49:9 0.00044362
14 *9:13 *56:10 0.00011196
*RES
1 io_in[17] *9:5 688.75 
2 *9:5 *9:7 4.5 
3 *9:7 *9:9 598.196 
4 *9:9 *9:11 4.5 
5 *9:11 *9:13 56.62 
6 *9:13 *419:io_in[17] 5.146 
*END

*D_NET *10 0.397637
*CONN
*P io_in[18] I
*I *419:io_in[18] I *D micro_irritating_maze
*CAP
1 io_in[18] 0.100531
2 *419:io_in[18] 0.000959001
3 *10:13 0.00171405
4 *10:11 0.000755044
5 *10:9 0.0727685
6 *10:7 0.0727685
7 *10:5 0.100531
8 *419:io_in[18] *47:15 0
9 *419:io_in[18] *86:7 0
10 *10:13 *11:13 0.0252171
11 *10:13 *15:21 0.000795056
12 *10:13 *53:9 0.0170599
13 *2:9 *10:13 0.00166482
14 *4:9 *10:13 0.000268769
15 *8:13 *10:13 0.00260481
*RES
1 io_in[18] *10:5 686.47 
2 *10:5 *10:7 4.5 
3 *10:7 *10:9 512.924 
4 *10:9 *10:11 4.5 
5 *10:11 *10:13 62.548 
6 *10:13 *419:io_in[18] 9.706 
*END

*D_NET *11 0.362029
*CONN
*P io_in[19] I
*I *419:io_in[19] I *D micro_irritating_maze
*CAP
1 io_in[19] 0.100203
2 *419:io_in[19] 0.000968307
3 *11:13 0.0063316
4 *11:11 0.0053633
5 *11:9 0.0601336
6 *11:7 0.0601336
7 *11:5 0.100203
8 *419:io_in[19] *48:7 0
9 *419:io_in[19] *87:7 0
10 *11:13 *53:9 0.000700227
11 *11:13 *97:9 0.000765261
12 *4:9 *11:13 0.00201104
13 *10:13 *11:13 0.0252171
*RES
1 io_in[19] *11:5 684.19 
2 *11:5 *11:7 4.5 
3 *11:7 *11:9 422.94 
4 *11:9 *11:11 4.5 
5 *11:11 *11:13 68.476 
6 *11:13 *419:io_in[19] 9.554 
*END

*D_NET *12 0.215026
*CONN
*P io_in[1] I
*I *419:io_in[1] I *D micro_irritating_maze
*CAP
1 io_in[1] 0.00403856
2 *419:io_in[1] 0.00172957
3 *12:13 0.0916823
4 *12:11 0.0939913
5 *419:io_in[1] *419:io_in[2] 0.00430262
6 *419:io_in[1] *50:15 0.000706026
7 *419:io_in[1] *77:11 0.00896725
8 *419:io_in[1] *331:17 0.00021622
9 *12:13 *419:io_in[3] 6.15206e-05
10 *12:13 *77:13 0
11 *12:13 *257:15 0.00774226
12 *12:13 *330:17 0.00111141
13 *1:13 *12:13 0
14 *1:19 *12:13 0.000477335
*RES
1 io_in[1] *12:11 37.386 
2 *12:11 *12:13 628.748 
3 *12:13 *419:io_in[1] 36.474 
*END

*D_NET *13 0.339248
*CONN
*P io_in[20] I
*I *419:io_in[20] I *D micro_irritating_maze
*CAP
1 io_in[20] 0.00239552
2 *419:io_in[20] 0.00248992
3 *13:13 0.1058
4 *13:11 0.10331
5 *13:9 0.0482116
6 *13:7 0.0506071
7 *419:io_in[20] *89:7 0
8 *13:13 *51:9 0.0264341
*RES
1 io_in[20] *13:7 20.65 
2 *13:7 *13:9 342.228 
3 *13:9 *13:11 4.5 
4 *13:11 *13:13 740.164 
5 *13:13 *419:io_in[20] 18.674 
*END

*D_NET *14 0.410485
*CONN
*P io_in[21] I
*I *419:io_in[21] I *D micro_irritating_maze
*CAP
1 io_in[21] 0.00125242
2 *419:io_in[21] 0.000106504
3 *14:21 0.00275657
4 *14:19 0.00265006
5 *14:17 0.016135
6 *14:15 0.016135
7 *14:13 0.0975479
8 *14:11 0.0988003
9 *419:io_in[21] *51:7 0
10 *419:io_in[21] *90:7 0
11 *14:17 *53:13 0.00600197
12 *14:17 *90:13 0.1046
13 *14:17 *113:15 0.000909033
14 *14:17 *116:9 0.00458389
15 *14:17 *118:9 0.00325585
16 *14:17 *120:9 0.00294167
17 *14:17 *144:9 0.00649934
18 *14:17 *151:17 0.0114263
19 *14:17 *170:9 0.0072464
20 *14:17 *232:24 0.00530449
21 *14:21 *16:13 0.000510792
22 *14:21 *45:9 0.000613512
23 *14:21 *56:10 0.00730864
24 *14:21 *96:9 0.00247428
25 *14:21 *100:17 0.000227987
26 *419:io_in[13] *14:21 0.00974923
27 *7:9 *14:11 0.000197064
28 *9:13 *14:21 0.00125043
*RES
1 io_in[21] *14:11 17.93 
2 *14:11 *14:13 699.539 
3 *14:13 *14:15 4.5 
4 *14:15 *14:17 99.45 
5 *14:17 *14:19 4.5 
6 *14:19 *14:21 53.0127 
7 *14:21 *419:io_in[21] 5.146 
*END

*D_NET *15 0.342279
*CONN
*P io_in[22] I
*I *419:io_in[22] I *D micro_irritating_maze
*CAP
1 io_in[22] 0.00118016
2 *419:io_in[22] 0.000952801
3 *15:21 0.00268759
4 *15:19 0.00173479
5 *15:17 0.00873341
6 *15:15 0.00873341
7 *15:13 0.0959596
8 *15:11 0.0971398
9 *419:io_in[22] *52:7 0
10 *419:io_in[22] *91:7 0
11 *15:13 *323:13 0.00221113
12 *15:17 *48:13 0
13 *15:17 *87:13 0.0772189
14 *15:17 *123:9 0.000406511
15 *15:17 *150:17 0.000274557
16 *15:17 *156:17 0.00479553
17 *15:21 *25:9 0.000639037
18 *15:21 *53:9 0.00297421
19 *15:21 *63:9 9.68932e-05
20 *15:21 *90:9 0.0226345
21 *15:21 *97:9 0.00382202
22 *2:9 *15:21 0.00738814
23 *4:9 *15:21 0.00149525
24 *7:9 *15:11 6.20697e-05
25 *8:13 *15:21 0.000343758
26 *10:13 *15:21 0.000795056
*RES
1 io_in[22] *15:11 17.018 
2 *15:11 *15:13 694.654 
3 *15:13 *15:15 4.5 
4 *15:15 *15:17 64.1955 
5 *15:17 *15:19 4.5 
6 *15:19 *15:21 61.5464 
7 *15:21 *419:io_in[22] 9.858 
*END

*D_NET *16 0.263125
*CONN
*P io_in[23] I
*I *419:io_in[23] I *D micro_irritating_maze
*CAP
1 io_in[23] 0.103886
2 *419:io_in[23] 0.000134092
3 *16:13 0.00382687
4 *16:11 0.00369278
5 *16:9 0.00624638
6 *16:7 0.00624638
7 *16:5 0.103886
8 *419:io_in[23] *53:7 0
9 *419:io_in[23] *92:7 0
10 *16:9 *81:19 0.000383063
11 *16:9 *92:15 0.0120595
12 *16:9 *97:15 0.00113309
13 *16:13 io_oeb[23] 0.00521713
14 *16:13 *49:9 0.000603332
15 *419:io_in[13] *16:13 0.00081029
16 *9:13 *16:13 0.0144887
17 *14:21 *16:13 0.000510792
*RES
1 io_in[23] *16:5 709.27 
2 *16:5 *16:7 4.5 
3 *16:7 *16:9 59.356 
4 *16:9 *16:11 4.5 
5 *16:11 *16:13 57.988 
6 *16:13 *419:io_in[23] 5.298 
*END

*D_NET *17 0.403461
*CONN
*P io_in[24] I
*I *419:io_in[24] I *D micro_irritating_maze
*CAP
1 io_in[24] 0.00276268
2 *419:io_in[24] 0.00201499
3 *17:13 0.0595737
4 *17:11 0.0603214
5 *419:io_in[24] *54:7 0
6 *17:13 *52:9 0.00685091
7 *17:13 *58:9 0
8 *17:13 *60:9 0.000498233
9 *17:13 *91:9 0.00637774
10 *6:17 *17:13 0.265061
*RES
1 io_in[24] *17:11 23.9696 
2 *17:11 *17:13 744.292 
3 *17:13 *419:io_in[24] 16.394 
*END

*D_NET *18 0.38404
*CONN
*P io_in[25] I
*I *419:io_in[25] I *D micro_irritating_maze
*CAP
1 io_in[25] 0.000134093
2 *419:io_in[25] 0.00266819
3 *18:13 0.0648283
4 *18:11 0.0622942
5 *419:io_in[25] *55:7 0
6 *419:io_in[25] *94:7 0
7 *18:13 *57:9 0.254115
*RES
1 io_in[25] *18:11 5.602 
2 *18:11 *18:13 705.356 
3 *18:13 *419:io_in[25] 20.802 
*END

*D_NET *19 0.320922
*CONN
*P io_in[26] I
*I *419:io_in[26] I *D micro_irritating_maze
*CAP
1 io_in[26] 0.000421459
2 *419:io_in[26] 0.00238234
3 *19:9 0.056773
4 *19:7 0.0548121
5 *419:io_in[26] *95:7 0
6 *19:9 *22:9 0.199699
7 *6:17 *19:9 0.0068337
*RES
1 io_in[26] *19:7 7.426 
2 *19:7 *19:9 651.7 
3 *19:9 *419:io_in[26] 17.458 
*END

*D_NET *20 0.274742
*CONN
*P io_in[27] I
*I *419:io_in[27] I *D micro_irritating_maze
*CAP
1 io_in[27] 0.00174756
2 *419:io_in[27] 0.00100505
3 *20:9 0.0559878
4 *20:7 0.0567303
5 *419:io_in[27] *57:7 0
6 *419:io_in[27] *96:7 0
7 *20:9 *25:9 0.153203
8 *20:9 *48:9 0
9 *20:9 *87:9 0
10 *2:9 *20:9 0.00606786
11 *4:9 *20:9 0
*RES
1 io_in[27] *20:7 14.266 
2 *20:7 *20:9 597.892 
3 *20:9 *419:io_in[27] 10.618 
*END

*D_NET *21 0.421324
*CONN
*P io_in[28] I
*I *419:io_in[28] I *D micro_irritating_maze
*CAP
1 io_in[28] 9.89182e-05
2 *419:io_in[28] 0.00251062
3 *21:13 0.0122199
4 *21:11 0.00980818
5 *419:io_in[28] *58:7 0
6 *419:io_in[28] *97:7 0
7 *21:13 *24:11 0.00381508
8 *21:13 *24:13 0.168154
9 *21:13 *57:9 0.224717
*RES
1 io_in[28] *21:11 5.298 
2 *21:11 *21:13 543.932 
3 *21:13 *419:io_in[28] 20.498 
*END

*D_NET *22 0.402614
*CONN
*P io_in[29] I
*I *419:io_in[29] I *D micro_irritating_maze
*CAP
1 io_in[29] 0.000455779
2 *419:io_in[29] 0.00202253
3 *22:9 0.00517925
4 *22:7 0.0036125
5 *419:io_in[29] *59:7 0
6 *419:io_in[29] *98:7 0
7 *22:9 *60:9 0.188297
8 *6:17 *22:9 0.00334716
9 *19:9 *22:9 0.199699
*RES
1 io_in[29] *22:7 7.578 
2 *22:7 *22:9 490.276 
3 *22:9 *419:io_in[29] 17.306 
*END

*D_NET *23 0.220721
*CONN
*P io_in[2] I
*I *419:io_in[2] I *D micro_irritating_maze
*CAP
1 io_in[2] 0.0173134
2 *419:io_in[2] 0.00129045
3 *23:13 0.074875
4 *23:11 0.0735846
5 *23:9 0.0104848
6 *23:7 0.0104848
7 *23:5 0.0173134
8 *419:io_in[2] *39:11 0.000109328
9 *419:io_in[2] *50:15 0.00391572
10 *419:io_in[2] *77:11 0.000233079
11 *419:io_in[2] *251:15 0.000230008
12 *23:9 *225:26 0
13 *23:13 io_oeb[0] 0
14 *23:13 *77:13 0
15 *23:13 *185:14 0.00208249
16 *23:13 *276:17 0.00221326
17 *23:13 *334:17 0.00228787
18 *419:io_in[1] *419:io_in[2] 0.00430262
*RES
1 io_in[2] *23:5 123.31 
2 *23:5 *23:7 4.5 
3 *23:7 *23:9 72.884 
4 *23:9 *23:11 4.5 
5 *23:11 *23:13 512.316 
6 *23:13 *419:io_in[2] 27.05 
*END

*D_NET *24 0.239701
*CONN
*P io_in[30] I
*I *419:io_in[30] I *D micro_irritating_maze
*CAP
1 io_in[30] 0.00220022
2 *419:io_in[30] 0.00240792
3 *24:13 0.0316656
4 *24:11 0.0314579
5 *419:io_in[30] *60:7 0
6 *419:io_in[30] *100:7 0
7 *21:13 *24:11 0.00381508
8 *21:13 *24:13 0.168154
*RES
1 io_in[30] *24:11 31.062 
2 *24:11 *24:13 410.704 
3 *24:13 *419:io_in[30] 20.346 
*END

*D_NET *25 0.228511
*CONN
*P io_in[31] I
*I *419:io_in[31] I *D micro_irritating_maze
*CAP
1 io_in[31] 0.00159647
2 *419:io_in[31] 0.000924583
3 *25:9 0.0122104
4 *25:7 0.0128823
5 *419:io_in[31] *62:7 0
6 *419:io_in[31] *101:7 0
7 *25:9 *63:9 0.0137945
8 *25:9 *90:9 0.00799851
9 *2:9 *25:9 0.0252623
10 *15:21 *25:9 0.000639037
11 *20:9 *25:9 0.153203
*RES
1 io_in[31] *25:7 14.418 
2 *25:7 *25:9 382.66 
3 *25:9 *419:io_in[31] 10.466 
*END

*D_NET *32 0.237255
*CONN
*P io_in[3] I
*I *419:io_in[3] I *D micro_irritating_maze
*CAP
1 io_in[3] 0.0891263
2 *419:io_in[3] 0.000948844
3 *32:9 0.027618
4 *32:7 0.0266691
5 *32:5 0.0891263
6 *419:io_in[3] *77:13 0.000453246
7 *419:io_in[3] *300:17 0.000233203
8 *32:9 *50:17 0
9 *32:9 *357:5 0.00301809
10 *12:13 *419:io_in[3] 6.15206e-05
*RES
1 io_in[3] *32:5 633.27 
2 *32:5 *32:7 4.5 
3 *32:7 *32:9 128.06 
4 *32:9 *419:io_in[3] 11.53 
*END

*D_NET *33 0.232764
*CONN
*P io_in[4] I
*I *419:io_in[4] I *D micro_irritating_maze
*CAP
1 io_in[4] 0.00135795
2 *419:io_in[4] 0.00241851
3 *33:17 0.0277416
4 *33:15 0.0253231
5 *33:13 0.0870861
6 *33:11 0.0884441
7 *33:17 *325:13 0
8 *33:17 *358:13 0
9 *5:9 *33:11 0.000392809
*RES
1 io_in[4] *33:11 19.146 
2 *33:11 *33:13 619.78 
3 *33:13 *33:15 4.5 
4 *33:15 *33:17 167.428 
5 *33:17 *419:io_in[4] 17.61 
*END

*D_NET *34 0.243073
*CONN
*P io_in[5] I
*I *419:io_in[5] I *D micro_irritating_maze
*CAP
1 io_in[5] 0.0878408
2 *419:io_in[5] 0.0024149
3 *34:9 0.0335344
4 *34:7 0.0311195
5 *34:5 0.0878408
6 *419:io_in[5] *213:17 0.000323137
7 *34:9 *358:13 0
*RES
1 io_in[5] *34:5 624.91 
2 *34:5 *34:7 4.5 
3 *34:7 *34:9 211.964 
4 *34:9 *419:io_in[5] 19.89 
*END

*D_NET *35 0.254892
*CONN
*P io_in[6] I
*I *419:io_in[6] I *D micro_irritating_maze
*CAP
1 io_in[6] 0.00141532
2 *419:io_in[6] 0.00320774
3 *35:17 0.0393983
4 *35:15 0.0361905
5 *35:13 0.0866324
6 *35:11 0.0880477
7 *5:9 *35:11 0
*RES
1 io_in[6] *35:11 18.082 
2 *35:11 *35:13 616.74 
3 *35:13 *35:15 4.5 
4 *35:15 *35:17 250.876 
5 *35:17 *419:io_in[6] 22.17 
*END

*D_NET *36 0.2677
*CONN
*P io_in[7] I
*I *419:io_in[7] I *D micro_irritating_maze
*CAP
1 io_in[7] 0.0804471
2 *419:io_in[7] 0.00980835
3 *36:11 0.00980835
4 *36:9 0.0420308
5 *36:7 0.0420308
6 *36:5 0.0804471
7 *419:io_in[7] *159:17 0.00312772
*RES
1 io_in[7] *36:5 572.47 
2 *36:5 *36:7 4.5 
3 *36:7 *36:9 295.868 
4 *36:9 *36:11 4.5 
5 *36:11 *419:io_in[7] 67.83 
*END

*D_NET *37 0.324694
*CONN
*P io_in[8] I
*I *419:io_in[8] I *D micro_irritating_maze
*CAP